  0
SECTION
  2
ENTITIES
999
DXF created from EnergyPlus
999
Program Version,EnergyPlus-Windows-64 8.0.0.008, YMD=2013.06.10 10:24
999
Polygon Action,ThickPolyline
999
Color Scheme,Default
999
Text - True North
  0
TEXT
  8
1
  6
Continuous
 62
  3
 10
      -11.00000
 20
        3.00000
 30
        0.10000
 40
 .25
  1
True North
 41
 0.0
  7
MONOTXT
210
0.0
220
0.0
230
1.0
999
Text - Building Title
  0
TEXT
  8
1
  6
Continuous
 62
  3
 10
      -14.00000
 20
       -1.00000
 30
        0.10000
 40
 .4
  1
Building - Building
 41
 0.0
  7
MONOTXT
210
0.0
220
0.0
230
1.0
999
North Arrow Stem
  0
3DFACE
  8
1
 62
  3
 10
      -10.00000
 20
        3.00000
 30
        0.10000
 11
      -10.00000
 21
        3.00000
 31
        0.00000
 12
      -10.00000
 22
        0.00000
 32
        0.00000
 13
      -10.00000
 23
        0.00000
 33
        0.10000
999
North Arrow Head 1
  0
3DFACE
  8
1
 62
  3
 10
      -10.00000
 20
        3.00000
 30
        0.10000
 11
      -10.00000
 21
        3.00000
 31
        0.00000
 12
      -10.50000
 22
        2.13398
 32
        0.00000
 13
      -10.50000
 23
        2.13398
 33
        0.10000
999
North Arrow Head 2
  0
3DFACE
  8
1
 62
  3
 10
      -10.00000
 20
        3.00000
 30
        0.10000
 11
      -10.00000
 21
        3.00000
 31
        0.00000
 12
       -9.50000
 22
        2.13398
 32
        0.00000
 13
       -9.50000
 23
        2.13398
 33
        0.10000
999
North Arrow Side 1
  0
3DFACE
  8
1
 62
  3
 10
      -10.50000
 20
        4.50000
 30
        0.10000
 11
      -10.50000
 21
        4.50000
 31
        0.00000
 12
      -10.50000
 22
        3.50000
 32
        0.00000
 13
      -10.50000
 23
        3.50000
 33
        0.10000
999
North Arrow Side 2
  0
3DFACE
  8
1
 62
  3
 10
      -10.50000
 20
        4.50000
 30
        0.10000
 11
      -10.50000
 21
        4.50000
 31
        0.00000
 12
       -9.50000
 22
        3.50000
 32
        0.00000
 13
       -9.50000
 23
        3.50000
 33
        0.10000
999
North Arrow Side 3
  0
3DFACE
  8
1
 62
  3
 10
       -9.50000
 20
        4.50000
 30
        0.10000
 11
       -9.50000
 21
        4.50000
 31
        0.00000
 12
       -9.50000
 22
        3.50000
 32
        0.00000
 13
       -9.50000
 23
        3.50000
 33
        0.10000
999
Zone Names
999
Zone=1:ZSF1
999
Zone=2:ZNF1
999
Zone=3:ZSF2
999
Zone=4:ZNF2
999
Zone=5:BASE-1
999
ZSF1:EWALL
  0
3DFACE
  8
ZSF1
 62
 43
 10
       17.58891
 20
        0.00000
 30
        3.35280
 11
       17.58891
 21
        0.00000
 31
        0.00000
 12
       17.58891
 22
        8.79446
 32
        0.00000
 13
       17.58891
 23
        8.79446
 33
        3.35280
999
ZSF1:EWWNDW
  0
3DFACE
  8
ZSF1
 62
143
 10
       17.58891
 20
        0.01000
 30
        2.67100
 11
       17.58891
 21
        0.01000
 31
        2.01000
 12
       17.58891
 22
        8.79000
 32
        2.01000
 13
       17.58891
 23
        8.79400
 33
        2.67100
999
ZSF1:SWALL
  0
3DFACE
  8
ZSF1
 62
 43
 10
        0.00000
 20
        0.00000
 30
        3.35280
 11
        0.00000
 21
        0.00000
 31
        0.00000
 12
       17.58891
 22
        0.00000
 32
        0.00000
 13
       17.58891
 23
        0.00000
 33
        3.35280
999
ZSF1:NSWNDW
  0
3DFACE
  8
ZSF1
 62
143
 10
        0.01000
 20
        0.00000
 30
        2.67100
 11
        0.01000
 21
        0.00000
 31
        2.01000
 12
       17.58000
 22
        0.00000
 32
        2.01000
 13
       17.58000
 23
        0.00000
 33
        2.67100
999
ZSF1:WWALL
  0
3DFACE
  8
ZSF1
 62
 43
 10
        0.00000
 20
        8.79446
 30
        3.35280
 11
        0.00000
 21
        8.79446
 31
        0.00000
 12
        0.00000
 22
        0.00000
 32
        0.00000
 13
        0.00000
 23
        0.00000
 33
        3.35280
999
ZSF1:ZWINDOW-4
  0
3DFACE
  8
ZSF1
 62
143
 10
        0.00000
 20
        8.79000
 30
        2.67100
 11
        0.00000
 21
        8.79000
 31
        2.01000
 12
        0.00000
 22
        0.01000
 32
        2.01000
 13
        0.00000
 23
        0.01000
 33
        2.67100
999
ZSF1:FSFLOOR-1
  0
3DFACE
  8
ZSF1
 62
  8
 10
        0.00000
 20
        0.00000
 30
        0.00000
 11
        0.00000
 21
        8.79446
 31
        0.00000
 12
       17.58891
 22
        8.79446
 32
        0.00000
 13
       17.58891
 23
        0.00000
 33
        0.00000
999
ZSF1:FSCEING-1
  0
3DFACE
  8
ZSF1
 62
 15
 10
        0.00000
 20
        8.79446
 30
        3.35280
 11
        0.00000
 21
        0.00000
 31
        3.35280
 12
       17.58891
 22
        0.00000
 32
        3.35280
 13
       17.58891
 23
        8.79446
 33
        3.35280
999
ZNF1:ZE-W-5
  0
3DFACE
  8
ZNF1
 62
 43
 10
       17.58891
 20
        8.79446
 30
        3.35280
 11
       17.58891
 21
        8.79446
 31
        0.00000
 12
       17.58891
 22
       17.58891
 32
        0.00000
 13
       17.58891
 23
       17.58891
 33
        3.35280
999
ZNF1:ZWINDOW-6
  0
3DFACE
  8
ZNF1
 62
143
 10
       17.58891
 20
        8.80000
 30
        2.67100
 11
       17.58891
 21
        8.80000
 31
        2.01000
 12
       17.58891
 22
       17.58000
 32
        2.01000
 13
       17.58891
 23
       17.58000
 33
        2.67100
999
ZNF1:NWALL
  0
3DFACE
  8
ZNF1
 62
 43
 10
       17.58891
 20
       17.58891
 30
        3.35280
 11
       17.58891
 21
       17.58891
 31
        0.00000
 12
        0.00000
 22
       17.58891
 32
        0.00000
 13
        0.00000
 23
       17.58891
 33
        3.35280
999
ZNF1:ZWINDOW-7
  0
3DFACE
  8
ZNF1
 62
143
 10
       17.58000
 20
       17.58891
 30
        2.67100
 11
       17.58000
 21
       17.58891
 31
        2.01000
 12
        0.01000
 22
       17.58891
 32
        2.01000
 13
        0.01000
 23
       17.58891
 33
        2.67100
999
ZNF1:ZE-W-8
  0
3DFACE
  8
ZNF1
 62
 43
 10
        0.00000
 20
       17.58891
 30
        3.35280
 11
        0.00000
 21
       17.58891
 31
        0.00000
 12
        0.00000
 22
        8.79446
 32
        0.00000
 13
        0.00000
 23
        8.79446
 33
        3.35280
999
ZNF1:ZWINDOW-9
  0
3DFACE
  8
ZNF1
 62
143
 10
        0.00000
 20
       17.58000
 30
        2.67100
 11
        0.00000
 21
       17.58000
 31
        2.01000
 12
        0.00000
 22
        8.80000
 32
        2.01000
 13
        0.00000
 23
        8.80000
 33
        2.67100
999
ZNF1:FNFLOOR-1
  0
3DFACE
  8
ZNF1
 62
  8
 10
        0.00000
 20
        8.79446
 30
        0.00000
 11
        0.00000
 21
       17.58891
 31
        0.00000
 12
       17.58891
 22
       17.58891
 32
        0.00000
 13
       17.58891
 23
        8.79446
 33
        0.00000
999
ZNF1:FNCEING-1
  0
3DFACE
  8
ZNF1
 62
 15
 10
        0.00000
 20
       17.58891
 30
        3.35280
 11
        0.00000
 21
        8.79446
 31
        3.35280
 12
       17.58891
 22
        8.79446
 32
        3.35280
 13
       17.58891
 23
       17.58891
 33
        3.35280
999
ZSF2:ZE-W-11
  0
3DFACE
  8
ZSF2
 62
 43
 10
       17.58891
 20
        0.00000
 30
        6.70560
 11
       17.58891
 21
        0.00000
 31
        3.35280
 12
       17.58891
 22
        8.79446
 32
        3.35280
 13
       17.58891
 23
        8.79446
 33
        6.70560
999
ZSF2:ZWINDOW-11
  0
3DFACE
  8
ZSF2
 62
143
 10
       17.58891
 20
        0.01000
 30
        6.03100
 11
       17.58891
 21
        0.01000
 31
        5.36000
 12
       17.58891
 22
        8.79000
 32
        5.36000
 13
       17.58891
 23
        8.79000
 33
        6.03100
999
ZSF2:ZE-W-13
  0
3DFACE
  8
ZSF2
 62
 43
 10
        0.00000
 20
        0.00000
 30
        6.70560
 11
        0.00000
 21
        0.00000
 31
        3.35280
 12
       17.58891
 22
        0.00000
 32
        3.35280
 13
       17.58891
 23
        0.00000
 33
        6.70560
999
ZSF2:ZWINDOW-13
  0
3DFACE
  8
ZSF2
 62
143
 10
        0.01000
 20
        0.00000
 30
        6.03100
 11
        0.01000
 21
        0.00000
 31
        5.36000
 12
       17.58000
 22
        0.00000
 32
        5.36000
 13
       17.58000
 23
        0.00000
 33
        6.03100
999
ZSF2:ZE-W-15
  0
3DFACE
  8
ZSF2
 62
 43
 10
        0.00000
 20
        8.79446
 30
        6.70560
 11
        0.00000
 21
        8.79446
 31
        3.35280
 12
        0.00000
 22
        0.00000
 32
        3.35280
 13
        0.00000
 23
        0.00000
 33
        6.70560
999
ZSF2:ZWINDOW-15
  0
3DFACE
  8
ZSF2
 62
143
 10
        0.00000
 20
        8.79000
 30
        6.03100
 11
        0.00000
 21
        8.79000
 31
        5.36000
 12
        0.00000
 22
        0.01000
 32
        5.36000
 13
        0.00000
 23
        0.01000
 33
        6.03100
999
ZSF2:SSFLOOR-1
  0
3DFACE
  8
ZSF2
 62
  8
 10
        0.00000
 20
        0.00000
 30
        3.35280
 11
        0.00000
 21
        8.79446
 31
        3.35280
 12
       17.58891
 22
        8.79446
 32
        3.35280
 13
       17.58891
 23
        0.00000
 33
        3.35280
999
ZSF2:ZROOF
  0
3DFACE
  8
ZSF2
 62
 15
 10
        0.00000
 20
        8.79446
 30
        6.70560
 11
        0.00000
 21
        0.00000
 31
        6.70560
 12
       17.58891
 22
        0.00000
 32
        6.70560
 13
       17.58891
 23
        8.79446
 33
        6.70560
999
ZNF2:ZE-W-17
  0
3DFACE
  8
ZNF2
 62
 43
 10
       17.58891
 20
        8.79446
 30
        6.70560
 11
       17.58891
 21
        8.79446
 31
        3.35280
 12
       17.58891
 22
       17.58891
 32
        3.35280
 13
       17.58891
 23
       17.58891
 33
        6.70560
999
ZNF2:ZWINDOW-17
  0
3DFACE
  8
ZNF2
 62
143
 10
       17.58891
 20
        8.90000
 30
        6.03100
 11
       17.58891
 21
        8.90000
 31
        5.36000
 12
       17.58891
 22
       17.58000
 32
        5.36000
 13
       17.58891
 23
       17.58000
 33
        6.03100
999
ZNF2:ZE-W-19
  0
3DFACE
  8
ZNF2
 62
 43
 10
       17.58891
 20
       17.58891
 30
        6.70560
 11
       17.58891
 21
       17.58891
 31
        3.35280
 12
        0.00000
 22
       17.58891
 32
        3.35280
 13
        0.00000
 23
       17.58891
 33
        6.70560
999
ZNF2:ZWINDOW-19
  0
3DFACE
  8
ZNF2
 62
143
 10
       17.58000
 20
       17.58891
 30
        6.03100
 11
       17.58000
 21
       17.58891
 31
        5.36000
 12
        0.01000
 22
       17.58891
 32
        5.36000
 13
        0.01000
 23
       17.58891
 33
        6.03100
999
ZNF2:ZE-W-21
  0
3DFACE
  8
ZNF2
 62
 43
 10
        0.00000
 20
       17.58891
 30
        6.70560
 11
        0.00000
 21
       17.58891
 31
        3.35280
 12
        0.00000
 22
        8.79446
 32
        3.35280
 13
        0.00000
 23
        8.79446
 33
        6.70560
999
ZNF2:ZWINDOW-21
  0
3DFACE
  8
ZNF2
 62
143
 10
        0.00000
 20
       17.58000
 30
        6.03100
 11
        0.00000
 21
       17.58000
 31
        5.36000
 12
        0.00000
 22
        8.90000
 32
        5.36000
 13
        0.00000
 23
        8.90000
 33
        6.03100
999
ZNF2:SNFLOOR-1
  0
3DFACE
  8
ZNF2
 62
  8
 10
        0.00000
 20
        8.79446
 30
        3.35280
 11
        0.00000
 21
       17.58891
 31
        3.35280
 12
       17.58891
 22
       17.58891
 32
        3.35280
 13
       17.58891
 23
        8.79446
 33
        3.35280
999
ZNF2:ZROOF-23
  0
3DFACE
  8
ZNF2
 62
 15
 10
        0.00000
 20
       17.58891
 30
        6.70560
 11
        0.00000
 21
        8.79446
 31
        6.70560
 12
       17.58891
 22
        8.79446
 32
        6.70560
 13
       17.58891
 23
       17.58891
 33
        6.70560
999
BASE-1:SLAB-1
  0
3DFACE
  8
BASE-1
 62
  8
 10
        0.00000
 20
        0.00000
 30
       -2.43840
 11
        0.00000
 21
       17.58891
 31
       -2.43840
 12
       17.58891
 22
       17.58891
 32
       -2.43840
 13
       17.58891
 23
        0.00000
 33
       -2.43840
999
BASE-1:BSCEING-1
  0
3DFACE
  8
BASE-1
 62
 15
 10
        0.00000
 20
        8.79446
 30
        0.00000
 11
        0.00000
 21
        0.00000
 31
        0.00000
 12
       17.58891
 22
        0.00000
 32
        0.00000
 13
       17.58891
 23
        8.79446
 33
        0.00000
999
BASE-1:BNCEING-1
  0
3DFACE
  8
BASE-1
 62
 15
 10
        0.00000
 20
       17.58891
 30
        0.00000
 11
        0.00000
 21
        8.79446
 31
        0.00000
 12
       17.58891
 22
        8.79446
 32
        0.00000
 13
       17.58891
 23
       17.58891
 33
        0.00000
  0
ENDSEC
  0
EOF
