  0
SECTION
  2
ENTITIES
999
DXF created from EnergyPlus
999
Program Version,EnergyPlus-Windows-64 8.0.0.008, YMD=2013.06.10 17:07
999
Polygon Action,ThickPolyline
999
Color Scheme,Default
999
Text - True North
  0
TEXT
  8
1
  6
Continuous
 62
  3
 10
      -11.00000
 20
        3.00000
 30
        0.10000
 40
 .25
  1
True North
 41
 0.0
  7
MONOTXT
210
0.0
220
0.0
230
1.0
999
Text - Building Title
  0
TEXT
  8
1
  6
Continuous
 62
  3
 10
      -14.00000
 20
       -1.00000
 30
        0.10000
 40
 .4
  1
Building - Ref Bldg Hospital New2004_v1.3_5.0
 41
 0.0
  7
MONOTXT
210
0.0
220
0.0
230
1.0
999
North Arrow Stem
  0
3DFACE
  8
1
 62
  3
 10
      -10.00000
 20
        3.00000
 30
        0.10000
 11
      -10.00000
 21
        3.00000
 31
        0.00000
 12
      -10.00000
 22
        0.00000
 32
        0.00000
 13
      -10.00000
 23
        0.00000
 33
        0.10000
999
North Arrow Head 1
  0
3DFACE
  8
1
 62
  3
 10
      -10.00000
 20
        3.00000
 30
        0.10000
 11
      -10.00000
 21
        3.00000
 31
        0.00000
 12
      -10.50000
 22
        2.13398
 32
        0.00000
 13
      -10.50000
 23
        2.13398
 33
        0.10000
999
North Arrow Head 2
  0
3DFACE
  8
1
 62
  3
 10
      -10.00000
 20
        3.00000
 30
        0.10000
 11
      -10.00000
 21
        3.00000
 31
        0.00000
 12
       -9.50000
 22
        2.13398
 32
        0.00000
 13
       -9.50000
 23
        2.13398
 33
        0.10000
999
North Arrow Side 1
  0
3DFACE
  8
1
 62
  3
 10
      -10.50000
 20
        4.50000
 30
        0.10000
 11
      -10.50000
 21
        4.50000
 31
        0.00000
 12
      -10.50000
 22
        3.50000
 32
        0.00000
 13
      -10.50000
 23
        3.50000
 33
        0.10000
999
North Arrow Side 2
  0
3DFACE
  8
1
 62
  3
 10
      -10.50000
 20
        4.50000
 30
        0.10000
 11
      -10.50000
 21
        4.50000
 31
        0.00000
 12
       -9.50000
 22
        3.50000
 32
        0.00000
 13
       -9.50000
 23
        3.50000
 33
        0.10000
999
North Arrow Side 3
  0
3DFACE
  8
1
 62
  3
 10
       -9.50000
 20
        4.50000
 30
        0.10000
 11
       -9.50000
 21
        4.50000
 31
        0.00000
 12
       -9.50000
 22
        3.50000
 32
        0.00000
 13
       -9.50000
 23
        3.50000
 33
        0.10000
999
Zone Names
999
Zone=1:BASEMENT
999
Zone=2:CORRIDOR_FLR_1
999
Zone=3:CORRIDOR_FLR_2
999
Zone=4:CORRIDOR_FLR_5
999
Zone=5:CORRIDOR_NW_FLR_3
999
Zone=6:CORRIDOR_NW_FLR_4
999
Zone=7:CORRIDOR_SE_FLR_3
999
Zone=8:CORRIDOR_SE_FLR_4
999
Zone=9:DINING_FLR_5
999
Zone=10:ER_EXAM1_MULT4_FLR_1
999
Zone=11:ER_EXAM3_MULT4_FLR_1
999
Zone=12:ER_NURSESTN_LOBBY_FLR_1
999
Zone=13:ER_TRAUMA1_FLR_1
999
Zone=14:ER_TRAUMA2_FLR_1
999
Zone=15:ER_TRIAGE_MULT4_FLR_1
999
Zone=16:ICU_FLR_2
999
Zone=17:ICU_NURSESTN_LOBBY_FLR_2
999
Zone=18:IC_PATROOM1_MULT5_FLR_2
999
Zone=19:IC_PATROOM2_FLR_2
999
Zone=20:IC_PATROOM3_MULT6_FLR_2
999
Zone=21:KITCHEN_FLR_5
999
Zone=22:LAB_FLR_3
999
Zone=23:LAB_FLR_4
999
Zone=24:LOBBY_RECORDS_FLR_1
999
Zone=25:NURSESTN_LOBBY_FLR_3
999
Zone=26:NURSESTN_LOBBY_FLR_4
999
Zone=27:NURSESTN_LOBBY_FLR_5
999
Zone=28:OR1_FLR_2
999
Zone=29:OR2_MULT5_FLR_2
999
Zone=30:OR3_FLR_2
999
Zone=31:OR4_FLR_2
999
Zone=32:OR_NURSESTN_LOBBY_FLR_2
999
Zone=33:OFFICE1_FLR_5
999
Zone=34:OFFICE1_MULT4_FLR_1
999
Zone=35:OFFICE2_MULT5_FLR_5
999
Zone=36:OFFICE3_FLR_5
999
Zone=37:OFFICE4_MULT6_FLR_5
999
Zone=38:PATROOM1_MULT10_FLR_3
999
Zone=39:PATROOM1_MULT10_FLR_4
999
Zone=40:PATROOM2_FLR_3
999
Zone=41:PATROOM2_FLR_4
999
Zone=42:PATROOM3_MULT10_FLR_3
999
Zone=43:PATROOM3_MULT10_FLR_4
999
Zone=44:PATROOM4_FLR_3
999
Zone=45:PATROOM4_FLR_4
999
Zone=46:PATROOM5_MULT10_FLR_3
999
Zone=47:PATROOM5_MULT10_FLR_4
999
Zone=48:PATROOM6_FLR_3
999
Zone=49:PATROOM6_FLR_4
999
Zone=50:PATROOM7_MULT10_FLR_3
999
Zone=51:PATROOM7_MULT10_FLR_4
999
Zone=52:PATROOM8_FLR_3
999
Zone=53:PATROOM8_FLR_4
999
Zone=54:PHYSTHERAPY_FLR_3
999
Zone=55:RADIOLOGY_FLR_4
999
Building Shading:CANOPY
  0
3DFACE
  8
Building Shading
 62
195
 10
       70.10400
 20
       31.24200
 30
        4.26830
 11
       70.10400
 21
       22.09800
 31
        4.26830
 12
       79.24800
 22
       22.09800
 32
        4.26830
 13
       79.24800
 23
       31.24200
 33
        4.26830
999
Building Shading:Mir-CANOPY
  0
3DFACE
  8
Building Shading
 62
195
 10
       79.24800
 20
       31.24200
 30
        4.26830
 11
       79.24800
 21
       22.09800
 31
        4.26830
 12
       70.10400
 22
       22.09800
 32
        4.26830
 13
       70.10400
 23
       31.24200
 33
        4.26830
999
BASEMENT:BASEMENT_WALL_EAST
  0
3DFACE
  8
BASEMENT
 62
 43
 10
       70.10400
 20
        0.00000
 30
        0.00000
 11
       70.10400
 21
        0.00000
 31
       -2.43900
 12
       70.10400
 22
       53.34000
 32
       -2.43900
 13
       70.10400
 23
       53.34000
 33
        0.00000
999
BASEMENT:BASEMENT_WALL_NORTH
  0
3DFACE
  8
BASEMENT
 62
 43
 10
       70.10400
 20
       53.34000
 30
        0.00000
 11
       70.10400
 21
       53.34000
 31
       -2.43900
 12
        0.00000
 22
       53.34000
 32
       -2.43900
 13
        0.00000
 23
       53.34000
 33
        0.00000
999
BASEMENT:BASEMENT_WALL_SOUTH
  0
3DFACE
  8
BASEMENT
 62
 43
 10
        0.00000
 20
        0.00000
 30
        0.00000
 11
        0.00000
 21
        0.00000
 31
       -2.43900
 12
       70.10400
 22
        0.00000
 32
       -2.43900
 13
       70.10400
 23
        0.00000
 33
        0.00000
999
BASEMENT:BASEMENT_WALL_WEST
  0
3DFACE
  8
BASEMENT
 62
 43
 10
        0.00000
 20
       53.34000
 30
        0.00000
 11
        0.00000
 21
       53.34000
 31
       -2.43900
 12
        0.00000
 22
        0.00000
 32
       -2.43900
 13
        0.00000
 23
        0.00000
 33
        0.00000
999
BASEMENT:BASEMENT_FLOOR
  0
3DFACE
  8
BASEMENT
 62
  8
 10
       70.10400
 20
       53.34000
 30
       -2.43900
 11
       70.10400
 21
        0.00000
 31
       -2.43900
 12
        0.00000
 22
        0.00000
 32
       -2.43900
 13
        0.00000
 23
       53.34000
 33
       -2.43900
999
BASEMENT:BASEMENT_CEILING
  0
3DFACE
  8
BASEMENT
 62
 15
 10
        0.00000
 20
        0.00000
 30
        0.00000
 11
       70.10400
 21
        0.00000
 31
        0.00000
 12
       70.10400
 22
       53.34000
 32
        0.00000
 13
        0.00000
 23
       53.34000
 33
        0.00000
999
CORRIDOR_FLR_1:CORRIDOR_FLR_1_WALL_1_WEST
  0
3DFACE
  8
CORRIDOR_FLR_1
 62
 43
 10
       28.95600
 20
       53.34000
 30
        4.26830
 11
       28.95600
 21
       53.34000
 31
        0.00000
 12
       28.95600
 22
       15.24000
 32
        0.00000
 13
       28.95600
 23
       15.24000
 33
        4.26830
999
CORRIDOR_FLR_1:CORRIDOR_FLR_1_WALL_2_WEST
  0
3DFACE
  8
CORRIDOR_FLR_1
 62
 43
 10
       28.95600
 20
       15.24000
 30
        4.26830
 11
       28.95600
 21
       15.24000
 31
        0.00000
 12
       28.95600
 22
        0.00000
 32
        0.00000
 13
       28.95600
 23
        0.00000
 33
        4.26830
999
CORRIDOR_FLR_1:CORRIDOR_FLR_1_WALL_EAST
  0
3DFACE
  8
CORRIDOR_FLR_1
 62
 43
 10
       39.62400
 20
        0.00000
 30
        4.26830
 11
       39.62400
 21
        0.00000
 31
        0.00000
 12
       39.62400
 22
       53.34000
 32
        0.00000
 13
       39.62400
 23
       53.34000
 33
        4.26830
999
CORRIDOR_FLR_1:CORRIDOR_FLR_1_WALL_NORTH
  0
3DFACE
  8
CORRIDOR_FLR_1
 62
 43
 10
       39.62400
 20
       53.34000
 30
        4.26830
 11
       39.62400
 21
       53.34000
 31
        0.00000
 12
       28.95600
 22
       53.34000
 32
        0.00000
 13
       28.95600
 23
       53.34000
 33
        4.26830
999
CORRIDOR_FLR_1:CORRIDOR_FLR_1_WALL_SOUTH
  0
3DFACE
  8
CORRIDOR_FLR_1
 62
 43
 10
       28.95600
 20
        0.00000
 30
        4.26830
 11
       28.95600
 21
        0.00000
 31
        0.00000
 12
       39.62400
 22
        0.00000
 32
        0.00000
 13
       39.62400
 23
        0.00000
 33
        4.26830
999
CORRIDOR_FLR_1:CORRIDOR_FLR_1_FLOOR
  0
3DFACE
  8
CORRIDOR_FLR_1
 62
  8
 10
       39.62400
 20
       53.34000
 30
        0.00000
 11
       39.62400
 21
        0.00000
 31
        0.00000
 12
       28.95600
 22
        0.00000
 32
        0.00000
 13
       28.95600
 23
       53.34000
 33
        0.00000
999
CORRIDOR_FLR_1:CORRIDOR_FLR_1_CEILING
  0
3DFACE
  8
CORRIDOR_FLR_1
 62
 15
 10
       28.95600
 20
       53.34000
 30
        4.26830
 11
       28.95600
 21
        0.00000
 31
        4.26830
 12
       39.62400
 22
        0.00000
 32
        4.26830
 13
       39.62400
 23
       53.34000
 33
        4.26830
999
CORRIDOR_FLR_2:CORRIDOR_FLR_2_WALL_EAST
  0
3DFACE
  8
CORRIDOR_FLR_2
 62
 43
 10
       39.62400
 20
        0.00000
 30
        8.53660
 11
       39.62400
 21
        0.00000
 31
        4.26830
 12
       39.62400
 22
       53.34000
 32
        4.26830
 13
       39.62400
 23
       53.34000
 33
        8.53660
999
CORRIDOR_FLR_2:CORRIDOR_FLR_2_WALL_NORTH
  0
3DFACE
  8
CORRIDOR_FLR_2
 62
 43
 10
       39.62400
 20
       53.34000
 30
        8.53660
 11
       39.62400
 21
       53.34000
 31
        4.26830
 12
       28.95600
 22
       53.34000
 32
        4.26830
 13
       28.95600
 23
       53.34000
 33
        8.53660
999
CORRIDOR_FLR_2:CORRIDOR_FLR_2_WALL_SOUTH
  0
3DFACE
  8
CORRIDOR_FLR_2
 62
 43
 10
       28.95600
 20
        0.00000
 30
        8.53660
 11
       28.95600
 21
        0.00000
 31
        4.26830
 12
       39.62400
 22
        0.00000
 32
        4.26830
 13
       39.62400
 23
        0.00000
 33
        8.53660
999
CORRIDOR_FLR_2:CORRIDOR_FLR_2_WALL_WEST
  0
3DFACE
  8
CORRIDOR_FLR_2
 62
 43
 10
       28.95600
 20
       53.34000
 30
        8.53660
 11
       28.95600
 21
       53.34000
 31
        4.26830
 12
       28.95600
 22
        0.00000
 32
        4.26830
 13
       28.95600
 23
        0.00000
 33
        8.53660
999
CORRIDOR_FLR_2:CORRIDOR_FLR_2_FLOOR
  0
3DFACE
  8
CORRIDOR_FLR_2
 62
  8
 10
       39.62400
 20
       53.34000
 30
        4.26830
 11
       39.62400
 21
        0.00000
 31
        4.26830
 12
       28.95600
 22
        0.00000
 32
        4.26830
 13
       28.95600
 23
       53.34000
 33
        4.26830
999
CORRIDOR_FLR_2:CORRIDOR_FLR_2_CEILING
  0
3DFACE
  8
CORRIDOR_FLR_2
 62
 15
 10
       28.95600
 20
       53.34000
 30
        8.53660
 11
       28.95600
 21
        0.00000
 31
        8.53660
 12
       39.62400
 22
        0.00000
 32
        8.53660
 13
       39.62400
 23
       53.34000
 33
        8.53660
999
CORRIDOR_FLR_5:CORRIDOR_FLR_5_WALL_1_EAST
  0
3DFACE
  8
CORRIDOR_FLR_5
 62
 43
 10
       15.24000
 20
        0.00000
 30
       21.34150
 11
       15.24000
 21
        0.00000
 31
       17.07320
 12
       15.24000
 22
       42.67200
 32
       17.07320
 13
       15.24000
 23
       42.67200
 33
       21.34150
999
CORRIDOR_FLR_5:CORRIDOR_FLR_5_WALL_1_NORTH
  0
3DFACE
  8
CORRIDOR_FLR_5
 62
 43
 10
       39.62400
 20
       53.34000
 30
       21.34150
 11
       39.62400
 21
       53.34000
 31
       17.07320
 12
       27.43200
 22
       53.34000
 32
       17.07320
 13
       27.43200
 23
       53.34000
 33
       21.34150
999
CORRIDOR_FLR_5:CORRIDOR_FLR_5_WALL_1_SOUTH
  0
3DFACE
  8
CORRIDOR_FLR_5
 62
 43
 10
       15.24000
 20
       42.67200
 30
       21.34150
 11
       15.24000
 21
       42.67200
 31
       17.07320
 12
       39.62400
 22
       42.67200
 32
       17.07320
 13
       39.62400
 23
       42.67200
 33
       21.34150
999
CORRIDOR_FLR_5:CORRIDOR_FLR_5_WALL_1_WEST
  0
3DFACE
  8
CORRIDOR_FLR_5
 62
 43
 10
        9.14400
 20
       48.76800
 30
       21.34150
 11
        9.14400
 21
       48.76800
 31
       17.07320
 12
        9.14400
 22
        0.00000
 32
       17.07320
 13
        9.14400
 23
        0.00000
 33
       21.34150
999
CORRIDOR_FLR_5:CORRIDOR_FLR_5_WALL_2_EAST
  0
3DFACE
  8
CORRIDOR_FLR_5
 62
 43
 10
       39.62400
 20
       42.67200
 30
       21.34150
 11
       39.62400
 21
       42.67200
 31
       17.07320
 12
       39.62400
 22
       53.34000
 32
       17.07320
 13
       39.62400
 23
       53.34000
 33
       21.34150
999
CORRIDOR_FLR_5:CORRIDOR_FLR_5_WALL_2_NORTH
  0
3DFACE
  8
CORRIDOR_FLR_5
 62
 43
 10
       27.43200
 20
       48.76800
 30
       21.34150
 11
       27.43200
 21
       48.76800
 31
       17.07320
 12
        9.14400
 22
       48.76800
 32
       17.07320
 13
        9.14400
 23
       48.76800
 33
       21.34150
999
CORRIDOR_FLR_5:CORRIDOR_FLR_5_WALL_2_SOUTH
  0
3DFACE
  8
CORRIDOR_FLR_5
 62
 43
 10
        9.14400
 20
        0.00000
 30
       21.34150
 11
        9.14400
 21
        0.00000
 31
       17.07320
 12
       15.24000
 22
        0.00000
 32
       17.07320
 13
       15.24000
 23
        0.00000
 33
       21.34150
999
CORRIDOR_FLR_5:CORRIDOR_FLR_5_WALL_2_WEST
  0
3DFACE
  8
CORRIDOR_FLR_5
 62
 43
 10
       27.43200
 20
       53.34000
 30
       21.34150
 11
       27.43200
 21
       53.34000
 31
       17.07320
 12
       27.43200
 22
       48.76800
 32
       17.07320
 13
       27.43200
 23
       48.76800
 33
       21.34150
999
CORRIDOR_FLR_5:CORRIDOR_FLR_5_FLOOR
  0
3DFACE
  8
CORRIDOR_FLR_5
 62
  8
 10
       27.43200
 20
       48.76800
 30
       17.07320
 11
       27.43200
 21
       53.34000
 31
       17.07320
 12
       39.62400
 22
       53.34000
 32
       17.07320
 13
       39.62400
 23
       53.34000
 33
       17.07320
  0
3DFACE
  8
CORRIDOR_FLR_5
 62
  8
 10
       39.62400
 20
       53.34000
 30
       17.07320
 11
       39.62400
 21
       42.67200
 31
       17.07320
 12
       15.24000
 22
       42.67200
 32
       17.07320
 13
       15.24000
 23
       42.67200
 33
       17.07320
  0
3DFACE
  8
CORRIDOR_FLR_5
 62
  8
 10
       15.24000
 20
       42.67200
 30
       17.07320
 11
       15.24000
 21
        0.00000
 31
       17.07320
 12
        9.14400
 22
        0.00000
 32
       17.07320
 13
        9.14400
 23
        0.00000
 33
       17.07320
  0
3DFACE
  8
CORRIDOR_FLR_5
 62
  8
 10
       15.24000
 20
       42.67200
 30
       17.07320
 11
        9.14400
 21
        0.00000
 31
       17.07320
 12
        9.14400
 22
       48.76800
 32
       17.07320
 13
        9.14400
 23
       48.76800
 33
       17.07320
  0
3DFACE
  8
CORRIDOR_FLR_5
 62
  8
 10
       15.24000
 20
       42.67200
 30
       17.07320
 11
        9.14400
 21
       48.76800
 31
       17.07320
 12
       27.43200
 22
       48.76800
 32
       17.07320
 13
       27.43200
 23
       48.76800
 33
       17.07320
  0
3DFACE
  8
CORRIDOR_FLR_5
 62
  8
 10
       27.43200
 20
       48.76800
 30
       17.07320
 11
       39.62400
 21
       53.34000
 31
       17.07320
 12
       15.24000
 22
       42.67200
 32
       17.07320
 13
       15.24000
 23
       42.67200
 33
       17.07320
999
CORRIDOR_FLR_5:CORRIDOR_FLR_5_CEILING
  0
3DFACE
  8
CORRIDOR_FLR_5
 62
 15
 10
        9.14400
 20
        0.00000
 30
       21.34150
 11
       15.24000
 21
        0.00000
 31
       21.34150
 12
       15.24000
 22
       42.67200
 32
       21.34150
 13
       15.24000
 23
       42.67200
 33
       21.34150
  0
3DFACE
  8
CORRIDOR_FLR_5
 62
 15
 10
       15.24000
 20
       42.67200
 30
       21.34150
 11
       39.62400
 21
       42.67200
 31
       21.34150
 12
       39.62400
 22
       53.34000
 32
       21.34150
 13
       39.62400
 23
       53.34000
 33
       21.34150
  0
3DFACE
  8
CORRIDOR_FLR_5
 62
 15
 10
       39.62400
 20
       53.34000
 30
       21.34150
 11
       27.43200
 21
       53.34000
 31
       21.34150
 12
       27.43200
 22
       48.76800
 32
       21.34150
 13
       27.43200
 23
       48.76800
 33
       21.34150
  0
3DFACE
  8
CORRIDOR_FLR_5
 62
 15
 10
       15.24000
 20
       42.67200
 30
       21.34150
 11
       39.62400
 21
       53.34000
 31
       21.34150
 12
       27.43200
 22
       48.76800
 32
       21.34150
 13
       27.43200
 23
       48.76800
 33
       21.34150
  0
3DFACE
  8
CORRIDOR_FLR_5
 62
 15
 10
       15.24000
 20
       42.67200
 30
       21.34150
 11
       27.43200
 21
       48.76800
 31
       21.34150
 12
        9.14400
 22
       48.76800
 32
       21.34150
 13
        9.14400
 23
       48.76800
 33
       21.34150
  0
3DFACE
  8
CORRIDOR_FLR_5
 62
 15
 10
        9.14400
 20
        0.00000
 30
       21.34150
 11
       15.24000
 21
       42.67200
 31
       21.34150
 12
        9.14400
 22
       48.76800
 32
       21.34150
 13
        9.14400
 23
       48.76800
 33
       21.34150
999
CORRIDOR_NW_FLR_3:CORRIDOR_NW_FLR_3_WALL_1_EAST
  0
3DFACE
  8
CORRIDOR_NW_FLR_3
 62
 43
 10
        9.14400
 20
       33.58200
 30
       12.80490
 11
        9.14400
 21
       33.58200
 31
        8.53660
 12
        9.14400
 22
       42.67200
 32
        8.53660
 13
        9.14400
 23
       42.67200
 33
       12.80490
999
CORRIDOR_NW_FLR_3:CORRIDOR_NW_FLR_3_WALL_1_NORTH
  0
3DFACE
  8
CORRIDOR_NW_FLR_3
 62
 43
 10
       39.62400
 20
       53.34000
 30
       12.80490
 11
       39.62400
 21
       53.34000
 31
        8.53660
 12
       28.95600
 22
       53.34000
 32
        8.53660
 13
       28.95600
 23
       53.34000
 33
       12.80490
999
CORRIDOR_NW_FLR_3:CORRIDOR_NW_FLR_3_WALL_1_WEST
  0
3DFACE
  8
CORRIDOR_NW_FLR_3
 62
 43
 10
       28.95600
 20
       53.34000
 30
       12.80490
 11
       28.95600
 21
       53.34000
 31
        8.53660
 12
       28.95600
 22
       48.76800
 32
        8.53660
 13
       28.95600
 23
       48.76800
 33
       12.80490
999
CORRIDOR_NW_FLR_3:CORRIDOR_NW_FLR_3_WALL_2_EAST
  0
3DFACE
  8
CORRIDOR_NW_FLR_3
 62
 43
 10
       39.62400
 20
       48.76800
 30
       12.80490
 11
       39.62400
 21
       48.76800
 31
        8.53660
 12
       39.62400
 22
       53.34000
 32
        8.53660
 13
       39.62400
 23
       53.34000
 33
       12.80490
999
CORRIDOR_NW_FLR_3:CORRIDOR_NW_FLR_3_WALL_2_NORTH
  0
3DFACE
  8
CORRIDOR_NW_FLR_3
 62
 43
 10
       28.95600
 20
       48.76800
 30
       12.80490
 11
       28.95600
 21
       48.76800
 31
        8.53660
 12
        4.57200
 22
       48.76800
 32
        8.53660
 13
        4.57200
 23
       48.76800
 33
       12.80490
999
CORRIDOR_NW_FLR_3:CORRIDOR_NW_FLR_3_WALL_2_SOUTH
  0
3DFACE
  8
CORRIDOR_NW_FLR_3
 62
 43
 10
       39.62400
 20
       42.67200
 30
       12.80490
 11
       39.62400
 21
       42.67200
 31
        8.53660
 12
       60.96000
 22
       42.67200
 32
        8.53660
 13
       60.96000
 23
       42.67200
 33
       12.80490
999
CORRIDOR_NW_FLR_3:CORRIDOR_NW_FLR_3_WALL_2_WEST
  0
3DFACE
  8
CORRIDOR_NW_FLR_3
 62
 43
 10
        4.57200
 20
       48.76800
 30
       12.80490
 11
        4.57200
 21
       48.76800
 31
        8.53660
 12
        4.57200
 22
       10.66800
 32
        8.53660
 13
        4.57200
 23
       10.66800
 33
       12.80490
999
CORRIDOR_NW_FLR_3:CORRIDOR_NW_FLR_3_WALL_3_EAST
  0
3DFACE
  8
CORRIDOR_NW_FLR_3
 62
 43
 10
       65.53200
 20
       42.67200
 30
       12.80490
 11
       65.53200
 21
       42.67200
 31
        8.53660
 12
       65.53200
 22
       48.76800
 32
        8.53660
 13
       65.53200
 23
       48.76800
 33
       12.80490
999
CORRIDOR_NW_FLR_3:CORRIDOR_NW_FLR_3_WALL_3_NORTH
  0
3DFACE
  8
CORRIDOR_NW_FLR_3
 62
 43
 10
       65.53200
 20
       48.76800
 30
       12.80490
 11
       65.53200
 21
       48.76800
 31
        8.53660
 12
       39.62400
 22
       48.76800
 32
        8.53660
 13
       39.62400
 23
       48.76800
 33
       12.80490
999
CORRIDOR_NW_FLR_3:CORRIDOR_NW_FLR_3_WALL_3_SOUTH
  0
3DFACE
  8
CORRIDOR_NW_FLR_3
 62
 43
 10
        9.14400
 20
       42.67200
 30
       12.80490
 11
        9.14400
 21
       42.67200
 31
        8.53660
 12
       39.62400
 22
       42.67200
 32
        8.53660
 13
       39.62400
 23
       42.67200
 33
       12.80490
999
CORRIDOR_NW_FLR_3:CORRIDOR_NW_FLR_3_WALL_4_EAST
  0
3DFACE
  8
CORRIDOR_NW_FLR_3
 62
 43
 10
        9.14400
 20
       10.66800
 30
       12.80490
 11
        9.14400
 21
       10.66800
 31
        8.53660
 12
        9.14400
 22
       33.58200
 32
        8.53660
 13
        9.14400
 23
       33.58200
 33
       12.80490
999
CORRIDOR_NW_FLR_3:CORRIDOR_NW_FLR_3_WALL_4_SOUTH
  0
3DFACE
  8
CORRIDOR_NW_FLR_3
 62
 43
 10
       60.96000
 20
       42.67200
 30
       12.80490
 11
       60.96000
 21
       42.67200
 31
        8.53660
 12
       65.53200
 22
       42.67200
 32
        8.53660
 13
       65.53200
 23
       42.67200
 33
       12.80490
999
CORRIDOR_NW_FLR_3:CORRIDOR_NW_FLR_3_WALL_5_SOUTH
  0
3DFACE
  8
CORRIDOR_NW_FLR_3
 62
 43
 10
        4.57200
 20
       10.66800
 30
       12.80490
 11
        4.57200
 21
       10.66800
 31
        8.53660
 12
        9.14400
 22
       10.66800
 32
        8.53660
 13
        9.14400
 23
       10.66800
 33
       12.80490
999
CORRIDOR_NW_FLR_3:CORRIDOR_NW_FLR_3_FLOOR
  0
3DFACE
  8
CORRIDOR_NW_FLR_3
 62
  8
 10
       28.95600
 20
       48.76800
 30
        8.53660
 11
       28.95600
 21
       53.34000
 31
        8.53660
 12
       39.62400
 22
       53.34000
 32
        8.53660
 13
       39.62400
 23
       53.34000
 33
        8.53660
  0
3DFACE
  8
CORRIDOR_NW_FLR_3
 62
  8
 10
       39.62400
 20
       48.76800
 30
        8.53660
 11
       65.53200
 21
       48.76800
 31
        8.53660
 12
       65.53200
 22
       42.67200
 32
        8.53660
 13
       65.53200
 23
       42.67200
 33
        8.53660
  0
3DFACE
  8
CORRIDOR_NW_FLR_3
 62
  8
 10
       39.62400
 20
       48.76800
 30
        8.53660
 11
       65.53200
 21
       42.67200
 31
        8.53660
 12
        9.14400
 22
       42.67200
 32
        8.53660
 13
        9.14400
 23
       42.67200
 33
        8.53660
  0
3DFACE
  8
CORRIDOR_NW_FLR_3
 62
  8
 10
        9.14400
 20
       42.67200
 30
        8.53660
 11
        9.14400
 21
       10.66800
 31
        8.53660
 12
        4.57200
 22
       10.66800
 32
        8.53660
 13
        4.57200
 23
       10.66800
 33
        8.53660
  0
3DFACE
  8
CORRIDOR_NW_FLR_3
 62
  8
 10
        9.14400
 20
       42.67200
 30
        8.53660
 11
        4.57200
 21
       10.66800
 31
        8.53660
 12
        4.57200
 22
       48.76800
 32
        8.53660
 13
        4.57200
 23
       48.76800
 33
        8.53660
  0
3DFACE
  8
CORRIDOR_NW_FLR_3
 62
  8
 10
       39.62400
 20
       48.76800
 30
        8.53660
 11
        9.14400
 21
       42.67200
 31
        8.53660
 12
        4.57200
 22
       48.76800
 32
        8.53660
 13
        4.57200
 23
       48.76800
 33
        8.53660
  0
3DFACE
  8
CORRIDOR_NW_FLR_3
 62
  8
 10
       39.62400
 20
       48.76800
 30
        8.53660
 11
        4.57200
 21
       48.76800
 31
        8.53660
 12
       28.95600
 22
       48.76800
 32
        8.53660
 13
       28.95600
 23
       48.76800
 33
        8.53660
  0
3DFACE
  8
CORRIDOR_NW_FLR_3
 62
  8
 10
       28.95600
 20
       48.76800
 30
        8.53660
 11
       39.62400
 21
       53.34000
 31
        8.53660
 12
       39.62400
 22
       48.76800
 32
        8.53660
 13
       39.62400
 23
       48.76800
 33
        8.53660
999
CORRIDOR_NW_FLR_3:CORRIDOR_NW_FLR_3_CEILING
  0
3DFACE
  8
CORRIDOR_NW_FLR_3
 62
 15
 10
        4.57200
 20
       10.66800
 30
       12.80490
 11
        9.14400
 21
       10.66800
 31
       12.80490
 12
        9.14400
 22
       42.67200
 32
       12.80490
 13
        9.14400
 23
       42.67200
 33
       12.80490
  0
3DFACE
  8
CORRIDOR_NW_FLR_3
 62
 15
 10
        9.14400
 20
       42.67200
 30
       12.80490
 11
       65.53200
 21
       42.67200
 31
       12.80490
 12
       65.53200
 22
       48.76800
 32
       12.80490
 13
       65.53200
 23
       48.76800
 33
       12.80490
  0
3DFACE
  8
CORRIDOR_NW_FLR_3
 62
 15
 10
        9.14400
 20
       42.67200
 30
       12.80490
 11
       65.53200
 21
       48.76800
 31
       12.80490
 12
       39.62400
 22
       48.76800
 32
       12.80490
 13
       39.62400
 23
       48.76800
 33
       12.80490
  0
3DFACE
  8
CORRIDOR_NW_FLR_3
 62
 15
 10
       39.62400
 20
       48.76800
 30
       12.80490
 11
       39.62400
 21
       53.34000
 31
       12.80490
 12
       28.95600
 22
       53.34000
 32
       12.80490
 13
       28.95600
 23
       53.34000
 33
       12.80490
  0
3DFACE
  8
CORRIDOR_NW_FLR_3
 62
 15
 10
       39.62400
 20
       48.76800
 30
       12.80490
 11
       28.95600
 21
       53.34000
 31
       12.80490
 12
       28.95600
 22
       48.76800
 32
       12.80490
 13
       28.95600
 23
       48.76800
 33
       12.80490
  0
3DFACE
  8
CORRIDOR_NW_FLR_3
 62
 15
 10
        9.14400
 20
       42.67200
 30
       12.80490
 11
       39.62400
 21
       48.76800
 31
       12.80490
 12
       28.95600
 22
       48.76800
 32
       12.80490
 13
       28.95600
 23
       48.76800
 33
       12.80490
  0
3DFACE
  8
CORRIDOR_NW_FLR_3
 62
 15
 10
        9.14400
 20
       42.67200
 30
       12.80490
 11
       28.95600
 21
       48.76800
 31
       12.80490
 12
        4.57200
 22
       48.76800
 32
       12.80490
 13
        4.57200
 23
       48.76800
 33
       12.80490
  0
3DFACE
  8
CORRIDOR_NW_FLR_3
 62
 15
 10
        4.57200
 20
       10.66800
 30
       12.80490
 11
        9.14400
 21
       42.67200
 31
       12.80490
 12
        4.57200
 22
       48.76800
 32
       12.80490
 13
        4.57200
 23
       48.76800
 33
       12.80490
999
CORRIDOR_NW_FLR_4:CORRIDOR_NW_FLR_4_WALL_1_EAST
  0
3DFACE
  8
CORRIDOR_NW_FLR_4
 62
 43
 10
        9.14400
 20
       33.58200
 30
       17.07320
 11
        9.14400
 21
       33.58200
 31
       12.80490
 12
        9.14400
 22
       42.67200
 32
       12.80490
 13
        9.14400
 23
       42.67200
 33
       17.07320
999
CORRIDOR_NW_FLR_4:CORRIDOR_NW_FLR_4_WALL_1_NORTH
  0
3DFACE
  8
CORRIDOR_NW_FLR_4
 62
 43
 10
       39.62400
 20
       53.34000
 30
       17.07320
 11
       39.62400
 21
       53.34000
 31
       12.80490
 12
       28.95600
 22
       53.34000
 32
       12.80490
 13
       28.95600
 23
       53.34000
 33
       17.07320
999
CORRIDOR_NW_FLR_4:CORRIDOR_NW_FLR_4_WALL_1_WEST
  0
3DFACE
  8
CORRIDOR_NW_FLR_4
 62
 43
 10
       28.95600
 20
       53.34000
 30
       17.07320
 11
       28.95600
 21
       53.34000
 31
       12.80490
 12
       28.95600
 22
       48.76800
 32
       12.80490
 13
       28.95600
 23
       48.76800
 33
       17.07320
999
CORRIDOR_NW_FLR_4:CORRIDOR_NW_FLR_4_WALL_2_EAST
  0
3DFACE
  8
CORRIDOR_NW_FLR_4
 62
 43
 10
       39.62400
 20
       48.76800
 30
       17.07320
 11
       39.62400
 21
       48.76800
 31
       12.80490
 12
       39.62400
 22
       53.34000
 32
       12.80490
 13
       39.62400
 23
       53.34000
 33
       17.07320
999
CORRIDOR_NW_FLR_4:CORRIDOR_NW_FLR_4_WALL_2_NORTH
  0
3DFACE
  8
CORRIDOR_NW_FLR_4
 62
 43
 10
       28.95600
 20
       48.76800
 30
       17.07320
 11
       28.95600
 21
       48.76800
 31
       12.80490
 12
        4.57200
 22
       48.76800
 32
       12.80490
 13
        4.57200
 23
       48.76800
 33
       17.07320
999
CORRIDOR_NW_FLR_4:CORRIDOR_NW_FLR_4_WALL_2_SOUTH
  0
3DFACE
  8
CORRIDOR_NW_FLR_4
 62
 43
 10
       39.62400
 20
       42.67200
 30
       17.07320
 11
       39.62400
 21
       42.67200
 31
       12.80490
 12
       60.96000
 22
       42.67200
 32
       12.80490
 13
       60.96000
 23
       42.67200
 33
       17.07320
999
CORRIDOR_NW_FLR_4:CORRIDOR_NW_FLR_4_WALL_2_WEST
  0
3DFACE
  8
CORRIDOR_NW_FLR_4
 62
 43
 10
        4.57200
 20
       48.76800
 30
       17.07320
 11
        4.57200
 21
       48.76800
 31
       12.80490
 12
        4.57200
 22
       10.66800
 32
       12.80490
 13
        4.57200
 23
       10.66800
 33
       17.07320
999
CORRIDOR_NW_FLR_4:CORRIDOR_NW_FLR_4_WALL_3_EAST
  0
3DFACE
  8
CORRIDOR_NW_FLR_4
 62
 43
 10
       65.53200
 20
       42.67200
 30
       17.07320
 11
       65.53200
 21
       42.67200
 31
       12.80490
 12
       65.53200
 22
       48.76800
 32
       12.80490
 13
       65.53200
 23
       48.76800
 33
       17.07320
999
CORRIDOR_NW_FLR_4:CORRIDOR_NW_FLR_4_WALL_3_NORTH
  0
3DFACE
  8
CORRIDOR_NW_FLR_4
 62
 43
 10
       65.53200
 20
       48.76800
 30
       17.07320
 11
       65.53200
 21
       48.76800
 31
       12.80490
 12
       39.62400
 22
       48.76800
 32
       12.80490
 13
       39.62400
 23
       48.76800
 33
       17.07320
999
CORRIDOR_NW_FLR_4:CORRIDOR_NW_FLR_4_WALL_3_SOUTH
  0
3DFACE
  8
CORRIDOR_NW_FLR_4
 62
 43
 10
        9.14400
 20
       42.67200
 30
       17.07320
 11
        9.14400
 21
       42.67200
 31
       12.80490
 12
       39.62400
 22
       42.67200
 32
       12.80490
 13
       39.62400
 23
       42.67200
 33
       17.07320
999
CORRIDOR_NW_FLR_4:CORRIDOR_NW_FLR_4_WALL_4_EAST
  0
3DFACE
  8
CORRIDOR_NW_FLR_4
 62
 43
 10
        9.14400
 20
       10.66800
 30
       17.07320
 11
        9.14400
 21
       10.66800
 31
       12.80490
 12
        9.14400
 22
       33.58200
 32
       12.80490
 13
        9.14400
 23
       33.58200
 33
       17.07320
999
CORRIDOR_NW_FLR_4:CORRIDOR_NW_FLR_4_WALL_4_SOUTH
  0
3DFACE
  8
CORRIDOR_NW_FLR_4
 62
 43
 10
       60.96000
 20
       42.67200
 30
       17.07320
 11
       60.96000
 21
       42.67200
 31
       12.80490
 12
       65.53200
 22
       42.67200
 32
       12.80490
 13
       65.53200
 23
       42.67200
 33
       17.07320
999
CORRIDOR_NW_FLR_4:CORRIDOR_NW_FLR_4_WALL_5_SOUTH
  0
3DFACE
  8
CORRIDOR_NW_FLR_4
 62
 43
 10
        4.57200
 20
       10.66800
 30
       17.07320
 11
        4.57200
 21
       10.66800
 31
       12.80490
 12
        9.14400
 22
       10.66800
 32
       12.80490
 13
        9.14400
 23
       10.66800
 33
       17.07320
999
CORRIDOR_NW_FLR_4:CORRIDOR_NW_FLR_4_FLOOR
  0
3DFACE
  8
CORRIDOR_NW_FLR_4
 62
  8
 10
       28.95600
 20
       48.76800
 30
       12.80490
 11
       28.95600
 21
       53.34000
 31
       12.80490
 12
       39.62400
 22
       53.34000
 32
       12.80490
 13
       39.62400
 23
       53.34000
 33
       12.80490
  0
3DFACE
  8
CORRIDOR_NW_FLR_4
 62
  8
 10
       39.62400
 20
       48.76800
 30
       12.80490
 11
       65.53200
 21
       48.76800
 31
       12.80490
 12
       65.53200
 22
       42.67200
 32
       12.80490
 13
       65.53200
 23
       42.67200
 33
       12.80490
  0
3DFACE
  8
CORRIDOR_NW_FLR_4
 62
  8
 10
       39.62400
 20
       48.76800
 30
       12.80490
 11
       65.53200
 21
       42.67200
 31
       12.80490
 12
        9.14400
 22
       42.67200
 32
       12.80490
 13
        9.14400
 23
       42.67200
 33
       12.80490
  0
3DFACE
  8
CORRIDOR_NW_FLR_4
 62
  8
 10
        9.14400
 20
       42.67200
 30
       12.80490
 11
        9.14400
 21
       10.66800
 31
       12.80490
 12
        4.57200
 22
       10.66800
 32
       12.80490
 13
        4.57200
 23
       10.66800
 33
       12.80490
  0
3DFACE
  8
CORRIDOR_NW_FLR_4
 62
  8
 10
        9.14400
 20
       42.67200
 30
       12.80490
 11
        4.57200
 21
       10.66800
 31
       12.80490
 12
        4.57200
 22
       48.76800
 32
       12.80490
 13
        4.57200
 23
       48.76800
 33
       12.80490
  0
3DFACE
  8
CORRIDOR_NW_FLR_4
 62
  8
 10
       39.62400
 20
       48.76800
 30
       12.80490
 11
        9.14400
 21
       42.67200
 31
       12.80490
 12
        4.57200
 22
       48.76800
 32
       12.80490
 13
        4.57200
 23
       48.76800
 33
       12.80490
  0
3DFACE
  8
CORRIDOR_NW_FLR_4
 62
  8
 10
       39.62400
 20
       48.76800
 30
       12.80490
 11
        4.57200
 21
       48.76800
 31
       12.80490
 12
       28.95600
 22
       48.76800
 32
       12.80490
 13
       28.95600
 23
       48.76800
 33
       12.80490
  0
3DFACE
  8
CORRIDOR_NW_FLR_4
 62
  8
 10
       28.95600
 20
       48.76800
 30
       12.80490
 11
       39.62400
 21
       53.34000
 31
       12.80490
 12
       39.62400
 22
       48.76800
 32
       12.80490
 13
       39.62400
 23
       48.76800
 33
       12.80490
999
CORRIDOR_NW_FLR_4:CORRIDOR_NW_FLR_4_CEILING
  0
3DFACE
  8
CORRIDOR_NW_FLR_4
 62
 15
 10
        4.57200
 20
       10.66800
 30
       17.07320
 11
        9.14400
 21
       10.66800
 31
       17.07320
 12
        9.14400
 22
       42.67200
 32
       17.07320
 13
        9.14400
 23
       42.67200
 33
       17.07320
  0
3DFACE
  8
CORRIDOR_NW_FLR_4
 62
 15
 10
        9.14400
 20
       42.67200
 30
       17.07320
 11
       65.53200
 21
       42.67200
 31
       17.07320
 12
       65.53200
 22
       48.76800
 32
       17.07320
 13
       65.53200
 23
       48.76800
 33
       17.07320
  0
3DFACE
  8
CORRIDOR_NW_FLR_4
 62
 15
 10
        9.14400
 20
       42.67200
 30
       17.07320
 11
       65.53200
 21
       48.76800
 31
       17.07320
 12
       39.62400
 22
       48.76800
 32
       17.07320
 13
       39.62400
 23
       48.76800
 33
       17.07320
  0
3DFACE
  8
CORRIDOR_NW_FLR_4
 62
 15
 10
       39.62400
 20
       48.76800
 30
       17.07320
 11
       39.62400
 21
       53.34000
 31
       17.07320
 12
       28.95600
 22
       53.34000
 32
       17.07320
 13
       28.95600
 23
       53.34000
 33
       17.07320
  0
3DFACE
  8
CORRIDOR_NW_FLR_4
 62
 15
 10
       39.62400
 20
       48.76800
 30
       17.07320
 11
       28.95600
 21
       53.34000
 31
       17.07320
 12
       28.95600
 22
       48.76800
 32
       17.07320
 13
       28.95600
 23
       48.76800
 33
       17.07320
  0
3DFACE
  8
CORRIDOR_NW_FLR_4
 62
 15
 10
        9.14400
 20
       42.67200
 30
       17.07320
 11
       39.62400
 21
       48.76800
 31
       17.07320
 12
       28.95600
 22
       48.76800
 32
       17.07320
 13
       28.95600
 23
       48.76800
 33
       17.07320
  0
3DFACE
  8
CORRIDOR_NW_FLR_4
 62
 15
 10
        9.14400
 20
       42.67200
 30
       17.07320
 11
       28.95600
 21
       48.76800
 31
       17.07320
 12
        4.57200
 22
       48.76800
 32
       17.07320
 13
        4.57200
 23
       48.76800
 33
       17.07320
  0
3DFACE
  8
CORRIDOR_NW_FLR_4
 62
 15
 10
        4.57200
 20
       10.66800
 30
       17.07320
 11
        9.14400
 21
       42.67200
 31
       17.07320
 12
        4.57200
 22
       48.76800
 32
       17.07320
 13
        4.57200
 23
       48.76800
 33
       17.07320
999
CORRIDOR_SE_FLR_3:CORRIDOR_NW_FLR_3_WALL_1_SOUTH
  0
3DFACE
  8
CORRIDOR_SE_FLR_3
 62
 43
 10
        9.14400
 20
       10.66800
 30
       12.80490
 11
        9.14400
 21
       10.66800
 31
        8.53660
 12
        4.57200
 22
       10.66800
 32
        8.53660
 13
        4.57200
 23
       10.66800
 33
       12.80490
999
CORRIDOR_SE_FLR_3:CORRIDOR_SE_FLR_3_WALL_1_EAST
  0
3DFACE
  8
CORRIDOR_SE_FLR_3
 62
 43
 10
       65.53200
 20
        4.57200
 30
       12.80490
 11
       65.53200
 21
        4.57200
 31
        8.53660
 12
       65.53200
 22
       42.67200
 32
        8.53660
 13
       65.53200
 23
       42.67200
 33
       12.80490
999
CORRIDOR_SE_FLR_3:CORRIDOR_SE_FLR_3_WALL_1_NORTH
  0
3DFACE
  8
CORRIDOR_SE_FLR_3
 62
 43
 10
       60.96000
 20
       10.66800
 30
       12.80490
 11
       60.96000
 21
       10.66800
 31
        8.53660
 12
       28.95600
 22
       10.66800
 32
        8.53660
 13
       28.95600
 23
       10.66800
 33
       12.80490
999
CORRIDOR_SE_FLR_3:CORRIDOR_SE_FLR_3_WALL_1_SOUTH
  0
3DFACE
  8
CORRIDOR_SE_FLR_3
 62
 43
 10
       28.95600
 20
        0.00000
 30
       12.80490
 11
       28.95600
 21
        0.00000
 31
        8.53660
 12
       39.62400
 22
        0.00000
 32
        8.53660
 13
       39.62400
 23
        0.00000
 33
       12.80490
999
CORRIDOR_SE_FLR_3:CORRIDOR_SE_FLR_3_WALL_1_WEST
  0
3DFACE
  8
CORRIDOR_SE_FLR_3
 62
 43
 10
       60.96000
 20
       42.67200
 30
       12.80490
 11
       60.96000
 21
       42.67200
 31
        8.53660
 12
       60.96000
 22
       19.81200
 32
        8.53660
 13
       60.96000
 23
       19.81200
 33
       12.80490
999
CORRIDOR_SE_FLR_3:CORRIDOR_SE_FLR_3_WALL_2_EAST
  0
3DFACE
  8
CORRIDOR_SE_FLR_3
 62
 43
 10
       39.62400
 20
        0.00000
 30
       12.80490
 11
       39.62400
 21
        0.00000
 31
        8.53660
 12
       39.62400
 22
        4.57200
 32
        8.53660
 13
       39.62400
 23
        4.57200
 33
       12.80490
999
CORRIDOR_SE_FLR_3:CORRIDOR_SE_FLR_3_WALL_2_NORTH
  0
3DFACE
  8
CORRIDOR_SE_FLR_3
 62
 43
 10
       28.95600
 20
       10.66800
 30
       12.80490
 11
       28.95600
 21
       10.66800
 31
        8.53660
 12
        9.14400
 22
       10.66800
 32
        8.53660
 13
        9.14400
 23
       10.66800
 33
       12.80490
999
CORRIDOR_SE_FLR_3:CORRIDOR_SE_FLR_3_WALL_2_SOUTH
  0
3DFACE
  8
CORRIDOR_SE_FLR_3
 62
 43
 10
        4.57200
 20
        4.57200
 30
       12.80490
 11
        4.57200
 21
        4.57200
 31
        8.53660
 12
       28.95600
 22
        4.57200
 32
        8.53660
 13
       28.95600
 23
        4.57200
 33
       12.80490
999
CORRIDOR_SE_FLR_3:CORRIDOR_SE_FLR_3_WALL_2_WEST
  0
3DFACE
  8
CORRIDOR_SE_FLR_3
 62
 43
 10
       60.96000
 20
       19.81200
 30
       12.80490
 11
       60.96000
 21
       19.81200
 31
        8.53660
 12
       60.96000
 22
       10.66800
 32
        8.53660
 13
       60.96000
 23
       10.66800
 33
       12.80490
999
CORRIDOR_SE_FLR_3:CORRIDOR_SE_FLR_3_WALL_3_NORTH
  0
3DFACE
  8
CORRIDOR_SE_FLR_3
 62
 43
 10
       65.53200
 20
       42.67200
 30
       12.80490
 11
       65.53200
 21
       42.67200
 31
        8.53660
 12
       60.96000
 22
       42.67200
 32
        8.53660
 13
       60.96000
 23
       42.67200
 33
       12.80490
999
CORRIDOR_SE_FLR_3:CORRIDOR_SE_FLR_3_WALL_3_SOUTH
  0
3DFACE
  8
CORRIDOR_SE_FLR_3
 62
 43
 10
       39.62400
 20
        4.57200
 30
       12.80490
 11
       39.62400
 21
        4.57200
 31
        8.53660
 12
       65.53200
 22
        4.57200
 32
        8.53660
 13
       65.53200
 23
        4.57200
 33
       12.80490
999
CORRIDOR_SE_FLR_3:CORRIDOR_SE_FLR_3_WALL_3_WEST
  0
3DFACE
  8
CORRIDOR_SE_FLR_3
 62
 43
 10
        4.57200
 20
       10.66800
 30
       12.80490
 11
        4.57200
 21
       10.66800
 31
        8.53660
 12
        4.57200
 22
        4.57200
 32
        8.53660
 13
        4.57200
 23
        4.57200
 33
       12.80490
999
CORRIDOR_SE_FLR_3:CORRIDOR_SE_FLR_3_WALL_4_WEST
  0
3DFACE
  8
CORRIDOR_SE_FLR_3
 62
 43
 10
       28.95600
 20
        4.57200
 30
       12.80490
 11
       28.95600
 21
        4.57200
 31
        8.53660
 12
       28.95600
 22
        0.00000
 32
        8.53660
 13
       28.95600
 23
        0.00000
 33
       12.80490
999
CORRIDOR_SE_FLR_3:CORRIDOR_SE_FLR_3_FLOOR
  0
3DFACE
  8
CORRIDOR_SE_FLR_3
 62
  8
 10
        4.57200
 20
        4.57200
 30
        8.53660
 11
        4.57200
 21
       10.66800
 31
        8.53660
 12
       60.96000
 22
       10.66800
 32
        8.53660
 13
       60.96000
 23
       10.66800
 33
        8.53660
  0
3DFACE
  8
CORRIDOR_SE_FLR_3
 62
  8
 10
       60.96000
 20
       10.66800
 30
        8.53660
 11
       60.96000
 21
       42.67200
 31
        8.53660
 12
       65.53200
 22
       42.67200
 32
        8.53660
 13
       65.53200
 23
       42.67200
 33
        8.53660
  0
3DFACE
  8
CORRIDOR_SE_FLR_3
 62
  8
 10
       39.62400
 20
        4.57200
 30
        8.53660
 11
       39.62400
 21
        0.00000
 31
        8.53660
 12
       28.95600
 22
        0.00000
 32
        8.53660
 13
       28.95600
 23
        0.00000
 33
        8.53660
  0
3DFACE
  8
CORRIDOR_SE_FLR_3
 62
  8
 10
       39.62400
 20
        4.57200
 30
        8.53660
 11
       28.95600
 21
        0.00000
 31
        8.53660
 12
       28.95600
 22
        4.57200
 32
        8.53660
 13
       28.95600
 23
        4.57200
 33
        8.53660
  0
3DFACE
  8
CORRIDOR_SE_FLR_3
 62
  8
 10
       65.53200
 20
        4.57200
 30
        8.53660
 11
       39.62400
 21
        4.57200
 31
        8.53660
 12
       28.95600
 22
        4.57200
 32
        8.53660
 13
       28.95600
 23
        4.57200
 33
        8.53660
  0
3DFACE
  8
CORRIDOR_SE_FLR_3
 62
  8
 10
       65.53200
 20
        4.57200
 30
        8.53660
 11
       28.95600
 21
        4.57200
 31
        8.53660
 12
        4.57200
 22
        4.57200
 32
        8.53660
 13
        4.57200
 23
        4.57200
 33
        8.53660
  0
3DFACE
  8
CORRIDOR_SE_FLR_3
 62
  8
 10
       65.53200
 20
        4.57200
 30
        8.53660
 11
        4.57200
 21
        4.57200
 31
        8.53660
 12
       60.96000
 22
       10.66800
 32
        8.53660
 13
       60.96000
 23
       10.66800
 33
        8.53660
  0
3DFACE
  8
CORRIDOR_SE_FLR_3
 62
  8
 10
       60.96000
 20
       10.66800
 30
        8.53660
 11
       65.53200
 21
       42.67200
 31
        8.53660
 12
       65.53200
 22
        4.57200
 32
        8.53660
 13
       65.53200
 23
        4.57200
 33
        8.53660
999
CORRIDOR_SE_FLR_3:CORRIDOR_SE_FLR_3_CEILING
  0
3DFACE
  8
CORRIDOR_SE_FLR_3
 62
 15
 10
       28.95600
 20
        4.57200
 30
       12.80490
 11
       28.95600
 21
        0.00000
 31
       12.80490
 12
       39.62400
 22
        0.00000
 32
       12.80490
 13
       39.62400
 23
        0.00000
 33
       12.80490
  0
3DFACE
  8
CORRIDOR_SE_FLR_3
 62
 15
 10
       65.53200
 20
        4.57200
 30
       12.80490
 11
       65.53200
 21
       42.67200
 31
       12.80490
 12
       60.96000
 22
       42.67200
 32
       12.80490
 13
       60.96000
 23
       42.67200
 33
       12.80490
  0
3DFACE
  8
CORRIDOR_SE_FLR_3
 62
 15
 10
       65.53200
 20
        4.57200
 30
       12.80490
 11
       60.96000
 21
       42.67200
 31
       12.80490
 12
       60.96000
 22
       10.66800
 32
       12.80490
 13
       60.96000
 23
       10.66800
 33
       12.80490
  0
3DFACE
  8
CORRIDOR_SE_FLR_3
 62
 15
 10
       39.62400
 20
        4.57200
 30
       12.80490
 11
       65.53200
 21
        4.57200
 31
       12.80490
 12
       60.96000
 22
       10.66800
 32
       12.80490
 13
       60.96000
 23
       10.66800
 33
       12.80490
  0
3DFACE
  8
CORRIDOR_SE_FLR_3
 62
 15
 10
       39.62400
 20
        4.57200
 30
       12.80490
 11
       60.96000
 21
       10.66800
 31
       12.80490
 12
        4.57200
 22
       10.66800
 32
       12.80490
 13
        4.57200
 23
       10.66800
 33
       12.80490
  0
3DFACE
  8
CORRIDOR_SE_FLR_3
 62
 15
 10
       39.62400
 20
        4.57200
 30
       12.80490
 11
        4.57200
 21
       10.66800
 31
       12.80490
 12
        4.57200
 22
        4.57200
 32
       12.80490
 13
        4.57200
 23
        4.57200
 33
       12.80490
  0
3DFACE
  8
CORRIDOR_SE_FLR_3
 62
 15
 10
       39.62400
 20
        4.57200
 30
       12.80490
 11
        4.57200
 21
        4.57200
 31
       12.80490
 12
       28.95600
 22
        4.57200
 32
       12.80490
 13
       28.95600
 23
        4.57200
 33
       12.80490
  0
3DFACE
  8
CORRIDOR_SE_FLR_3
 62
 15
 10
       28.95600
 20
        4.57200
 30
       12.80490
 11
       39.62400
 21
        0.00000
 31
       12.80490
 12
       39.62400
 22
        4.57200
 32
       12.80490
 13
       39.62400
 23
        4.57200
 33
       12.80490
999
CORRIDOR_SE_FLR_4:CORRIDOR_NW_FLR_4_WALL_1_SOUTH
  0
3DFACE
  8
CORRIDOR_SE_FLR_4
 62
 43
 10
        9.14400
 20
       10.66800
 30
       17.07320
 11
        9.14400
 21
       10.66800
 31
       12.80490
 12
        4.57200
 22
       10.66800
 32
       12.80490
 13
        4.57200
 23
       10.66800
 33
       17.07320
999
CORRIDOR_SE_FLR_4:CORRIDOR_SE_FLR_4_WALL_1_EAST
  0
3DFACE
  8
CORRIDOR_SE_FLR_4
 62
 43
 10
       65.53200
 20
        4.57200
 30
       17.07320
 11
       65.53200
 21
        4.57200
 31
       12.80490
 12
       65.53200
 22
       42.67200
 32
       12.80490
 13
       65.53200
 23
       42.67200
 33
       17.07320
999
CORRIDOR_SE_FLR_4:CORRIDOR_SE_FLR_4_WALL_1_NORTH
  0
3DFACE
  8
CORRIDOR_SE_FLR_4
 62
 43
 10
       60.96000
 20
       10.66800
 30
       17.07320
 11
       60.96000
 21
       10.66800
 31
       12.80490
 12
       28.95600
 22
       10.66800
 32
       12.80490
 13
       28.95600
 23
       10.66800
 33
       17.07320
999
CORRIDOR_SE_FLR_4:CORRIDOR_SE_FLR_4_WALL_1_SOUTH
  0
3DFACE
  8
CORRIDOR_SE_FLR_4
 62
 43
 10
       28.95600
 20
        0.00000
 30
       17.07320
 11
       28.95600
 21
        0.00000
 31
       12.80490
 12
       39.62400
 22
        0.00000
 32
       12.80490
 13
       39.62400
 23
        0.00000
 33
       17.07320
999
CORRIDOR_SE_FLR_4:CORRIDOR_SE_FLR_4_WALL_1_WEST
  0
3DFACE
  8
CORRIDOR_SE_FLR_4
 62
 43
 10
       60.96000
 20
       42.67200
 30
       17.07320
 11
       60.96000
 21
       42.67200
 31
       12.80490
 12
       60.96000
 22
       19.81200
 32
       12.80490
 13
       60.96000
 23
       19.81200
 33
       17.07320
999
CORRIDOR_SE_FLR_4:CORRIDOR_SE_FLR_4_WALL_2_EAST
  0
3DFACE
  8
CORRIDOR_SE_FLR_4
 62
 43
 10
       39.62400
 20
        0.00000
 30
       17.07320
 11
       39.62400
 21
        0.00000
 31
       12.80490
 12
       39.62400
 22
        4.57200
 32
       12.80490
 13
       39.62400
 23
        4.57200
 33
       17.07320
999
CORRIDOR_SE_FLR_4:CORRIDOR_SE_FLR_4_WALL_2_NORTH
  0
3DFACE
  8
CORRIDOR_SE_FLR_4
 62
 43
 10
       28.95600
 20
       10.66800
 30
       17.07320
 11
       28.95600
 21
       10.66800
 31
       12.80490
 12
        9.14400
 22
       10.66800
 32
       12.80490
 13
        9.14400
 23
       10.66800
 33
       17.07320
999
CORRIDOR_SE_FLR_4:CORRIDOR_SE_FLR_4_WALL_2_SOUTH
  0
3DFACE
  8
CORRIDOR_SE_FLR_4
 62
 43
 10
        4.57200
 20
        4.57200
 30
       17.07320
 11
        4.57200
 21
        4.57200
 31
       12.80490
 12
       28.95600
 22
        4.57200
 32
       12.80490
 13
       28.95600
 23
        4.57200
 33
       17.07320
999
CORRIDOR_SE_FLR_4:CORRIDOR_SE_FLR_4_WALL_2_WEST
  0
3DFACE
  8
CORRIDOR_SE_FLR_4
 62
 43
 10
       60.96000
 20
       19.81200
 30
       17.07320
 11
       60.96000
 21
       19.81200
 31
       12.80490
 12
       60.96000
 22
       10.66800
 32
       12.80490
 13
       60.96000
 23
       10.66800
 33
       17.07320
999
CORRIDOR_SE_FLR_4:CORRIDOR_SE_FLR_4_WALL_3_NORTH
  0
3DFACE
  8
CORRIDOR_SE_FLR_4
 62
 43
 10
       65.53200
 20
       42.67200
 30
       17.07320
 11
       65.53200
 21
       42.67200
 31
       12.80490
 12
       60.96000
 22
       42.67200
 32
       12.80490
 13
       60.96000
 23
       42.67200
 33
       17.07320
999
CORRIDOR_SE_FLR_4:CORRIDOR_SE_FLR_4_WALL_3_SOUTH
  0
3DFACE
  8
CORRIDOR_SE_FLR_4
 62
 43
 10
       39.62400
 20
        4.57200
 30
       17.07320
 11
       39.62400
 21
        4.57200
 31
       12.80490
 12
       65.53200
 22
        4.57200
 32
       12.80490
 13
       65.53200
 23
        4.57200
 33
       17.07320
999
CORRIDOR_SE_FLR_4:CORRIDOR_SE_FLR_4_WALL_3_WEST
  0
3DFACE
  8
CORRIDOR_SE_FLR_4
 62
 43
 10
        4.57200
 20
       10.66800
 30
       17.07320
 11
        4.57200
 21
       10.66800
 31
       12.80490
 12
        4.57200
 22
        4.57200
 32
       12.80490
 13
        4.57200
 23
        4.57200
 33
       17.07320
999
CORRIDOR_SE_FLR_4:CORRIDOR_SE_FLR_4_WALL_4_WEST
  0
3DFACE
  8
CORRIDOR_SE_FLR_4
 62
 43
 10
       28.95600
 20
        4.57200
 30
       17.07320
 11
       28.95600
 21
        4.57200
 31
       12.80490
 12
       28.95600
 22
        0.00000
 32
       12.80490
 13
       28.95600
 23
        0.00000
 33
       17.07320
999
CORRIDOR_SE_FLR_4:CORRIDOR_SE_FLR_4_FLOOR
  0
3DFACE
  8
CORRIDOR_SE_FLR_4
 62
  8
 10
        4.57200
 20
        4.57200
 30
       12.80490
 11
        4.57200
 21
       10.66800
 31
       12.80490
 12
       60.96000
 22
       10.66800
 32
       12.80490
 13
       60.96000
 23
       10.66800
 33
       12.80490
  0
3DFACE
  8
CORRIDOR_SE_FLR_4
 62
  8
 10
       60.96000
 20
       10.66800
 30
       12.80490
 11
       60.96000
 21
       42.67200
 31
       12.80490
 12
       65.53200
 22
       42.67200
 32
       12.80490
 13
       65.53200
 23
       42.67200
 33
       12.80490
  0
3DFACE
  8
CORRIDOR_SE_FLR_4
 62
  8
 10
       39.62400
 20
        4.57200
 30
       12.80490
 11
       39.62400
 21
        0.00000
 31
       12.80490
 12
       28.95600
 22
        0.00000
 32
       12.80490
 13
       28.95600
 23
        0.00000
 33
       12.80490
  0
3DFACE
  8
CORRIDOR_SE_FLR_4
 62
  8
 10
       39.62400
 20
        4.57200
 30
       12.80490
 11
       28.95600
 21
        0.00000
 31
       12.80490
 12
       28.95600
 22
        4.57200
 32
       12.80490
 13
       28.95600
 23
        4.57200
 33
       12.80490
  0
3DFACE
  8
CORRIDOR_SE_FLR_4
 62
  8
 10
       65.53200
 20
        4.57200
 30
       12.80490
 11
       39.62400
 21
        4.57200
 31
       12.80490
 12
       28.95600
 22
        4.57200
 32
       12.80490
 13
       28.95600
 23
        4.57200
 33
       12.80490
  0
3DFACE
  8
CORRIDOR_SE_FLR_4
 62
  8
 10
       65.53200
 20
        4.57200
 30
       12.80490
 11
       28.95600
 21
        4.57200
 31
       12.80490
 12
        4.57200
 22
        4.57200
 32
       12.80490
 13
        4.57200
 23
        4.57200
 33
       12.80490
  0
3DFACE
  8
CORRIDOR_SE_FLR_4
 62
  8
 10
       65.53200
 20
        4.57200
 30
       12.80490
 11
        4.57200
 21
        4.57200
 31
       12.80490
 12
       60.96000
 22
       10.66800
 32
       12.80490
 13
       60.96000
 23
       10.66800
 33
       12.80490
  0
3DFACE
  8
CORRIDOR_SE_FLR_4
 62
  8
 10
       60.96000
 20
       10.66800
 30
       12.80490
 11
       65.53200
 21
       42.67200
 31
       12.80490
 12
       65.53200
 22
        4.57200
 32
       12.80490
 13
       65.53200
 23
        4.57200
 33
       12.80490
999
CORRIDOR_SE_FLR_4:CORRIDOR_SE_FLR_4_CEILING
  0
3DFACE
  8
CORRIDOR_SE_FLR_4
 62
 15
 10
       28.95600
 20
        4.57200
 30
       17.07320
 11
       28.95600
 21
        0.00000
 31
       17.07320
 12
       39.62400
 22
        0.00000
 32
       17.07320
 13
       39.62400
 23
        0.00000
 33
       17.07320
  0
3DFACE
  8
CORRIDOR_SE_FLR_4
 62
 15
 10
       65.53200
 20
        4.57200
 30
       17.07320
 11
       65.53200
 21
       42.67200
 31
       17.07320
 12
       60.96000
 22
       42.67200
 32
       17.07320
 13
       60.96000
 23
       42.67200
 33
       17.07320
  0
3DFACE
  8
CORRIDOR_SE_FLR_4
 62
 15
 10
       65.53200
 20
        4.57200
 30
       17.07320
 11
       60.96000
 21
       42.67200
 31
       17.07320
 12
       60.96000
 22
       10.66800
 32
       17.07320
 13
       60.96000
 23
       10.66800
 33
       17.07320
  0
3DFACE
  8
CORRIDOR_SE_FLR_4
 62
 15
 10
       39.62400
 20
        4.57200
 30
       17.07320
 11
       65.53200
 21
        4.57200
 31
       17.07320
 12
       60.96000
 22
       10.66800
 32
       17.07320
 13
       60.96000
 23
       10.66800
 33
       17.07320
  0
3DFACE
  8
CORRIDOR_SE_FLR_4
 62
 15
 10
       39.62400
 20
        4.57200
 30
       17.07320
 11
       60.96000
 21
       10.66800
 31
       17.07320
 12
        4.57200
 22
       10.66800
 32
       17.07320
 13
        4.57200
 23
       10.66800
 33
       17.07320
  0
3DFACE
  8
CORRIDOR_SE_FLR_4
 62
 15
 10
       39.62400
 20
        4.57200
 30
       17.07320
 11
        4.57200
 21
       10.66800
 31
       17.07320
 12
        4.57200
 22
        4.57200
 32
       17.07320
 13
        4.57200
 23
        4.57200
 33
       17.07320
  0
3DFACE
  8
CORRIDOR_SE_FLR_4
 62
 15
 10
       39.62400
 20
        4.57200
 30
       17.07320
 11
        4.57200
 21
        4.57200
 31
       17.07320
 12
       28.95600
 22
        4.57200
 32
       17.07320
 13
       28.95600
 23
        4.57200
 33
       17.07320
  0
3DFACE
  8
CORRIDOR_SE_FLR_4
 62
 15
 10
       28.95600
 20
        4.57200
 30
       17.07320
 11
       39.62400
 21
        0.00000
 31
       17.07320
 12
       39.62400
 22
        4.57200
 32
       17.07320
 13
       39.62400
 23
        4.57200
 33
       17.07320
999
DINING_FLR_5:DINING_FLR_5_WALL_EAST
  0
3DFACE
  8
DINING_FLR_5
 62
 43
 10
       70.10400
 20
        0.00000
 30
       21.34150
 11
       70.10400
 21
        0.00000
 31
       17.07320
 12
       70.10400
 22
       22.86000
 32
       17.07320
 13
       70.10400
 23
       22.86000
 33
       21.34150
999
DINING_FLR_5:DINING_FLR_5_WALL_NORTH
  0
3DFACE
  8
DINING_FLR_5
 62
 43
 10
       70.10400
 20
       22.86000
 30
       21.34150
 11
       70.10400
 21
       22.86000
 31
       17.07320
 12
       39.62400
 22
       22.86000
 32
       17.07320
 13
       39.62400
 23
       22.86000
 33
       21.34150
999
DINING_FLR_5:DINING_FLR_5_WALL_SOUTH
  0
3DFACE
  8
DINING_FLR_5
 62
 43
 10
       39.62400
 20
        0.00000
 30
       21.34150
 11
       39.62400
 21
        0.00000
 31
       17.07320
 12
       70.10400
 22
        0.00000
 32
       17.07320
 13
       70.10400
 23
        0.00000
 33
       21.34150
999
DINING_FLR_5:DINING_FLR_5_WALL_SOUTH_WINDOW
  0
3DFACE
  8
DINING_FLR_5
 62
143
 10
       40.19500
 20
        0.00000
 30
       19.20200
 11
       40.19500
 21
        0.00000
 31
       17.98300
 12
       69.53300
 22
        0.00000
 32
       17.98300
 13
       69.53300
 23
        0.00000
 33
       19.20200
999
DINING_FLR_5:DINING_FLR_5_WALL_WEST
  0
3DFACE
  8
DINING_FLR_5
 62
 43
 10
       39.62400
 20
       22.86000
 30
       21.34150
 11
       39.62400
 21
       22.86000
 31
       17.07320
 12
       39.62400
 22
        0.00000
 32
       17.07320
 13
       39.62400
 23
        0.00000
 33
       21.34150
999
DINING_FLR_5:DINING_FLR_5_FLOOR
  0
3DFACE
  8
DINING_FLR_5
 62
  8
 10
       39.62400
 20
        0.00000
 30
       17.07320
 11
       39.62400
 21
       22.86000
 31
       17.07320
 12
       70.10400
 22
       22.86000
 32
       17.07320
 13
       70.10400
 23
        0.00000
 33
       17.07320
999
DINING_FLR_5:DINING_FLR_5_CEILING
  0
3DFACE
  8
DINING_FLR_5
 62
 15
 10
       39.62400
 20
        0.00000
 30
       21.34150
 11
       70.10400
 21
        0.00000
 31
       21.34150
 12
       70.10400
 22
       22.86000
 32
       21.34150
 13
       39.62400
 23
       22.86000
 33
       21.34150
999
ER_EXAM1_MULT4_FLR_1:ER_EXAM1_MULT4_FLR_1_WALL_EAST
  0
3DFACE
  8
ER_EXAM1_MULT4_FLR_1
 62
 43
 10
       45.72000
 20
        0.00000
 30
        4.26830
 11
       45.72000
 21
        0.00000
 31
        0.00000
 12
       45.72000
 22
        4.57200
 32
        0.00000
 13
       45.72000
 23
        4.57200
 33
        4.26830
999
ER_EXAM1_MULT4_FLR_1:ER_EXAM1_MULT4_FLR_1_WALL_NORTH
  0
3DFACE
  8
ER_EXAM1_MULT4_FLR_1
 62
 43
 10
       45.72000
 20
        4.57200
 30
        4.26830
 11
       45.72000
 21
        4.57200
 31
        0.00000
 12
       39.62400
 22
        4.57200
 32
        0.00000
 13
       39.62400
 23
        4.57200
 33
        4.26830
999
ER_EXAM1_MULT4_FLR_1:ER_EXAM1_MULT4_FLR_1_WALL_SOUTH
  0
3DFACE
  8
ER_EXAM1_MULT4_FLR_1
 62
 43
 10
       39.62400
 20
        0.00000
 30
        4.26830
 11
       39.62400
 21
        0.00000
 31
        0.00000
 12
       45.72000
 22
        0.00000
 32
        0.00000
 13
       45.72000
 23
        0.00000
 33
        4.26830
999
ER_EXAM1_MULT4_FLR_1:ER_EXAM1_MULT4_FLR_1_WALL_WEST
  0
3DFACE
  8
ER_EXAM1_MULT4_FLR_1
 62
 43
 10
       39.62400
 20
        4.57200
 30
        4.26830
 11
       39.62400
 21
        4.57200
 31
        0.00000
 12
       39.62400
 22
        0.00000
 32
        0.00000
 13
       39.62400
 23
        0.00000
 33
        4.26830
999
ER_EXAM1_MULT4_FLR_1:ER_EXAM1_MULT4_FLR_1_FLOOR
  0
3DFACE
  8
ER_EXAM1_MULT4_FLR_1
 62
  8
 10
       45.72000
 20
        4.57200
 30
        0.00000
 11
       45.72000
 21
        0.00000
 31
        0.00000
 12
       39.62400
 22
        0.00000
 32
        0.00000
 13
       39.62400
 23
        4.57200
 33
        0.00000
999
ER_EXAM1_MULT4_FLR_1:ER_EXAM1_MULT4_FLR_1_CEILING
  0
3DFACE
  8
ER_EXAM1_MULT4_FLR_1
 62
 15
 10
       39.62400
 20
        4.57200
 30
        4.26830
 11
       39.62400
 21
        0.00000
 31
        4.26830
 12
       45.72000
 22
        0.00000
 32
        4.26830
 13
       45.72000
 23
        4.57200
 33
        4.26830
999
ER_EXAM3_MULT4_FLR_1:ER_EXAM3_MULT4_FLR_1_WALL_EAST
  0
3DFACE
  8
ER_EXAM3_MULT4_FLR_1
 62
 43
 10
       70.10400
 20
        4.57200
 30
        4.26830
 11
       70.10400
 21
        4.57200
 31
        0.00000
 12
       70.10400
 22
        9.14400
 32
        0.00000
 13
       70.10400
 23
        9.14400
 33
        4.26830
999
ER_EXAM3_MULT4_FLR_1:ER_EXAM3_MULT4_FLR_1_WALL_NORTH
  0
3DFACE
  8
ER_EXAM3_MULT4_FLR_1
 62
 43
 10
       70.10400
 20
        9.14400
 30
        4.26830
 11
       70.10400
 21
        9.14400
 31
        0.00000
 12
       64.00800
 22
        9.14400
 32
        0.00000
 13
       64.00800
 23
        9.14400
 33
        4.26830
999
ER_EXAM3_MULT4_FLR_1:ER_EXAM3_MULT4_FLR_1_WALL_SOUTH
  0
3DFACE
  8
ER_EXAM3_MULT4_FLR_1
 62
 43
 10
       64.00800
 20
        4.57200
 30
        4.26830
 11
       64.00800
 21
        4.57200
 31
        0.00000
 12
       70.10400
 22
        4.57200
 32
        0.00000
 13
       70.10400
 23
        4.57200
 33
        4.26830
999
ER_EXAM3_MULT4_FLR_1:ER_EXAM3_MULT4_FLR_1_WALL_WEST
  0
3DFACE
  8
ER_EXAM3_MULT4_FLR_1
 62
 43
 10
       64.00800
 20
        9.14400
 30
        4.26830
 11
       64.00800
 21
        9.14400
 31
        0.00000
 12
       64.00800
 22
        4.57200
 32
        0.00000
 13
       64.00800
 23
        4.57200
 33
        4.26830
999
ER_EXAM3_MULT4_FLR_1:ER_EXAM3_MULT4_FLR_1_FLOOR
  0
3DFACE
  8
ER_EXAM3_MULT4_FLR_1
 62
  8
 10
       70.10400
 20
        9.14400
 30
        0.00000
 11
       70.10400
 21
        4.57200
 31
        0.00000
 12
       64.00800
 22
        4.57200
 32
        0.00000
 13
       64.00800
 23
        9.14400
 33
        0.00000
999
ER_EXAM3_MULT4_FLR_1:ER_EXAM3_MULT4_FLR_1_CEILING
  0
3DFACE
  8
ER_EXAM3_MULT4_FLR_1
 62
 15
 10
       64.00800
 20
        9.14400
 30
        4.26830
 11
       64.00800
 21
        4.57200
 31
        4.26830
 12
       70.10400
 22
        4.57200
 32
        4.26830
 13
       70.10400
 23
        9.14400
 33
        4.26830
999
ER_NURSESTN_LOBBY_FLR_1:ER_NURSESTAT_FLR_1_WALL_1_EAST
  0
3DFACE
  8
ER_NURSESTN_LOBBY_FLR_1
 62
 43
 10
       70.10400
 20
       13.71600
 30
        4.26830
 11
       70.10400
 21
       13.71600
 31
        0.00000
 12
       70.10400
 22
       39.62400
 32
        0.00000
 13
       70.10400
 23
       39.62400
 33
        4.26830
999
ER_NURSESTN_LOBBY_FLR_1:ER_NURSESTAT_FLR_1_WALL_1_EAST_WINDOW
  0
3DFACE
  8
ER_NURSESTN_LOBBY_FLR_1
 62
143
 10
       70.10400
 20
       14.20200
 30
        2.13400
 11
       70.10400
 21
       14.20200
 31
        0.91400
 12
       70.10400
 22
       39.13800
 32
        0.91400
 13
       70.10400
 23
       39.13800
 33
        2.13400
999
ER_NURSESTN_LOBBY_FLR_1:ER_NURSESTAT_FLR_1_WALL_1_NORTH
  0
3DFACE
  8
ER_NURSESTN_LOBBY_FLR_1
 62
 43
 10
       64.00800
 20
       48.76800
 30
        4.26830
 11
       64.00800
 21
       48.76800
 31
        0.00000
 12
       39.62400
 22
       48.76800
 32
        0.00000
 13
       39.62400
 23
       48.76800
 33
        4.26830
999
ER_NURSESTN_LOBBY_FLR_1:ER_NURSESTAT_FLR_1_WALL_1_SOUTH
  0
3DFACE
  8
ER_NURSESTN_LOBBY_FLR_1
 62
 43
 10
       39.62400
 20
        4.57200
 30
        4.26830
 11
       39.62400
 21
        4.57200
 31
        0.00000
 12
       64.00800
 22
        4.57200
 32
        0.00000
 13
       64.00800
 23
        4.57200
 33
        4.26830
999
ER_NURSESTN_LOBBY_FLR_1:ER_NURSESTAT_FLR_1_WALL_1_WEST
  0
3DFACE
  8
ER_NURSESTN_LOBBY_FLR_1
 62
 43
 10
       39.62400
 20
       48.76800
 30
        4.26830
 11
       39.62400
 21
       48.76800
 31
        0.00000
 12
       39.62400
 22
        4.57200
 32
        0.00000
 13
       39.62400
 23
        4.57200
 33
        4.26830
999
ER_NURSESTN_LOBBY_FLR_1:ER_NURSESTAT_FLR_1_WALL_2_EAST
  0
3DFACE
  8
ER_NURSESTN_LOBBY_FLR_1
 62
 43
 10
       64.00800
 20
        4.57200
 30
        4.26830
 11
       64.00800
 21
        4.57200
 31
        0.00000
 12
       64.00800
 22
       13.71600
 32
        0.00000
 13
       64.00800
 23
       13.71600
 33
        4.26830
999
ER_NURSESTN_LOBBY_FLR_1:ER_NURSESTAT_FLR_1_WALL_2_NORTH
  0
3DFACE
  8
ER_NURSESTN_LOBBY_FLR_1
 62
 43
 10
       70.10400
 20
       39.62400
 30
        4.26830
 11
       70.10400
 21
       39.62400
 31
        0.00000
 12
       64.00800
 22
       39.62400
 32
        0.00000
 13
       64.00800
 23
       39.62400
 33
        4.26830
999
ER_NURSESTN_LOBBY_FLR_1:ER_NURSESTAT_FLR_1_WALL_2_SOUTH
  0
3DFACE
  8
ER_NURSESTN_LOBBY_FLR_1
 62
 43
 10
       64.00800
 20
       13.71600
 30
        4.26830
 11
       64.00800
 21
       13.71600
 31
        0.00000
 12
       70.10400
 22
       13.71600
 32
        0.00000
 13
       70.10400
 23
       13.71600
 33
        4.26830
999
ER_NURSESTN_LOBBY_FLR_1:ER_NURSESTAT_FLR_1_WALL_3_EAST
  0
3DFACE
  8
ER_NURSESTN_LOBBY_FLR_1
 62
 43
 10
       64.00800
 20
       39.62400
 30
        4.26830
 11
       64.00800
 21
       39.62400
 31
        0.00000
 12
       64.00800
 22
       48.76800
 32
        0.00000
 13
       64.00800
 23
       48.76800
 33
        4.26830
999
ER_NURSESTN_LOBBY_FLR_1:ER_NURSESTAT_FLR_1_FLOOR
  0
3DFACE
  8
ER_NURSESTN_LOBBY_FLR_1
 62
  8
 10
       39.62400
 20
        4.57200
 30
        0.00000
 11
       39.62400
 21
       48.76800
 31
        0.00000
 12
       64.00800
 22
       48.76800
 32
        0.00000
 13
       64.00800
 23
       48.76800
 33
        0.00000
  0
3DFACE
  8
ER_NURSESTN_LOBBY_FLR_1
 62
  8
 10
       39.62400
 20
        4.57200
 30
        0.00000
 11
       64.00800
 21
       48.76800
 31
        0.00000
 12
       64.00800
 22
       39.62400
 32
        0.00000
 13
       64.00800
 23
       39.62400
 33
        0.00000
  0
3DFACE
  8
ER_NURSESTN_LOBBY_FLR_1
 62
  8
 10
       39.62400
 20
        4.57200
 30
        0.00000
 11
       64.00800
 21
       39.62400
 31
        0.00000
 12
       70.10400
 22
       39.62400
 32
        0.00000
 13
       70.10400
 23
       39.62400
 33
        0.00000
  0
3DFACE
  8
ER_NURSESTN_LOBBY_FLR_1
 62
  8
 10
       70.10400
 20
       39.62400
 30
        0.00000
 11
       70.10400
 21
       13.71600
 31
        0.00000
 12
       64.00800
 22
       13.71600
 32
        0.00000
 13
       64.00800
 23
       13.71600
 33
        0.00000
  0
3DFACE
  8
ER_NURSESTN_LOBBY_FLR_1
 62
  8
 10
       39.62400
 20
        4.57200
 30
        0.00000
 11
       70.10400
 21
       39.62400
 31
        0.00000
 12
       64.00800
 22
       13.71600
 32
        0.00000
 13
       64.00800
 23
       13.71600
 33
        0.00000
  0
3DFACE
  8
ER_NURSESTN_LOBBY_FLR_1
 62
  8
 10
       39.62400
 20
        4.57200
 30
        0.00000
 11
       64.00800
 21
       13.71600
 31
        0.00000
 12
       64.00800
 22
        4.57200
 32
        0.00000
 13
       64.00800
 23
        4.57200
 33
        0.00000
999
ER_NURSESTN_LOBBY_FLR_1:ER_NURSESTAT_FLR_1_CEILING
  0
3DFACE
  8
ER_NURSESTN_LOBBY_FLR_1
 62
 15
 10
       39.62400
 20
        4.57200
 30
        4.26830
 11
       64.00800
 21
        4.57200
 31
        4.26830
 12
       64.00800
 22
       13.71600
 32
        4.26830
 13
       64.00800
 23
       13.71600
 33
        4.26830
  0
3DFACE
  8
ER_NURSESTN_LOBBY_FLR_1
 62
 15
 10
       64.00800
 20
       13.71600
 30
        4.26830
 11
       70.10400
 21
       13.71600
 31
        4.26830
 12
       70.10400
 22
       39.62400
 32
        4.26830
 13
       70.10400
 23
       39.62400
 33
        4.26830
  0
3DFACE
  8
ER_NURSESTN_LOBBY_FLR_1
 62
 15
 10
       39.62400
 20
        4.57200
 30
        4.26830
 11
       64.00800
 21
       13.71600
 31
        4.26830
 12
       70.10400
 22
       39.62400
 32
        4.26830
 13
       70.10400
 23
       39.62400
 33
        4.26830
  0
3DFACE
  8
ER_NURSESTN_LOBBY_FLR_1
 62
 15
 10
       39.62400
 20
        4.57200
 30
        4.26830
 11
       70.10400
 21
       39.62400
 31
        4.26830
 12
       64.00800
 22
       39.62400
 32
        4.26830
 13
       64.00800
 23
       39.62400
 33
        4.26830
  0
3DFACE
  8
ER_NURSESTN_LOBBY_FLR_1
 62
 15
 10
       39.62400
 20
        4.57200
 30
        4.26830
 11
       64.00800
 21
       39.62400
 31
        4.26830
 12
       64.00800
 22
       48.76800
 32
        4.26830
 13
       64.00800
 23
       48.76800
 33
        4.26830
  0
3DFACE
  8
ER_NURSESTN_LOBBY_FLR_1
 62
 15
 10
       39.62400
 20
        4.57200
 30
        4.26830
 11
       64.00800
 21
       48.76800
 31
        4.26830
 12
       39.62400
 22
       48.76800
 32
        4.26830
 13
       39.62400
 23
       48.76800
 33
        4.26830
999
ER_TRAUMA1_FLR_1:ER_EXAM2_FLR_1_WALL_EAST
  0
3DFACE
  8
ER_TRAUMA1_FLR_1
 62
 43
 10
       70.10400
 20
        0.00000
 30
        4.26830
 11
       70.10400
 21
        0.00000
 31
        0.00000
 12
       70.10400
 22
        4.57200
 32
        0.00000
 13
       70.10400
 23
        4.57200
 33
        4.26830
999
ER_TRAUMA1_FLR_1:ER_EXAM2_FLR_1_WALL_NORTH
  0
3DFACE
  8
ER_TRAUMA1_FLR_1
 62
 43
 10
       70.10400
 20
        4.57200
 30
        4.26830
 11
       70.10400
 21
        4.57200
 31
        0.00000
 12
       64.00800
 22
        4.57200
 32
        0.00000
 13
       64.00800
 23
        4.57200
 33
        4.26830
999
ER_TRAUMA1_FLR_1:ER_EXAM2_FLR_1_WALL_SOUTH
  0
3DFACE
  8
ER_TRAUMA1_FLR_1
 62
 43
 10
       64.00800
 20
        0.00000
 30
        4.26830
 11
       64.00800
 21
        0.00000
 31
        0.00000
 12
       70.10400
 22
        0.00000
 32
        0.00000
 13
       70.10400
 23
        0.00000
 33
        4.26830
999
ER_TRAUMA1_FLR_1:ER_EXAM2_FLR_1_WALL_WEST
  0
3DFACE
  8
ER_TRAUMA1_FLR_1
 62
 43
 10
       64.00800
 20
        4.57200
 30
        4.26830
 11
       64.00800
 21
        4.57200
 31
        0.00000
 12
       64.00800
 22
        0.00000
 32
        0.00000
 13
       64.00800
 23
        0.00000
 33
        4.26830
999
ER_TRAUMA1_FLR_1:ER_EXAM2_FLR_1_FLOOR
  0
3DFACE
  8
ER_TRAUMA1_FLR_1
 62
  8
 10
       70.10400
 20
        4.57200
 30
        0.00000
 11
       70.10400
 21
        0.00000
 31
        0.00000
 12
       64.00800
 22
        0.00000
 32
        0.00000
 13
       64.00800
 23
        4.57200
 33
        0.00000
999
ER_TRAUMA1_FLR_1:ER_EXAM2_FLR_1_CEILING
  0
3DFACE
  8
ER_TRAUMA1_FLR_1
 62
 15
 10
       64.00800
 20
        4.57200
 30
        4.26830
 11
       64.00800
 21
        0.00000
 31
        4.26830
 12
       70.10400
 22
        0.00000
 32
        4.26830
 13
       70.10400
 23
        4.57200
 33
        4.26830
999
ER_TRAUMA2_FLR_1:ER_EXAM4_FLR_1_WALL_EAST
  0
3DFACE
  8
ER_TRAUMA2_FLR_1
 62
 43
 10
       70.10400
 20
       48.76800
 30
        4.26830
 11
       70.10400
 21
       48.76800
 31
        0.00000
 12
       70.10400
 22
       53.34000
 32
        0.00000
 13
       70.10400
 23
       53.34000
 33
        4.26830
999
ER_TRAUMA2_FLR_1:ER_EXAM4_FLR_1_WALL_NORTH
  0
3DFACE
  8
ER_TRAUMA2_FLR_1
 62
 43
 10
       70.10400
 20
       53.34000
 30
        4.26830
 11
       70.10400
 21
       53.34000
 31
        0.00000
 12
       64.00800
 22
       53.34000
 32
        0.00000
 13
       64.00800
 23
       53.34000
 33
        4.26830
999
ER_TRAUMA2_FLR_1:ER_EXAM4_FLR_1_WALL_SOUTH
  0
3DFACE
  8
ER_TRAUMA2_FLR_1
 62
 43
 10
       64.00800
 20
       48.76800
 30
        4.26830
 11
       64.00800
 21
       48.76800
 31
        0.00000
 12
       70.10400
 22
       48.76800
 32
        0.00000
 13
       70.10400
 23
       48.76800
 33
        4.26830
999
ER_TRAUMA2_FLR_1:ER_EXAM4_FLR_1_WALL_WEST
  0
3DFACE
  8
ER_TRAUMA2_FLR_1
 62
 43
 10
       64.00800
 20
       53.34000
 30
        4.26830
 11
       64.00800
 21
       53.34000
 31
        0.00000
 12
       64.00800
 22
       48.76800
 32
        0.00000
 13
       64.00800
 23
       48.76800
 33
        4.26830
999
ER_TRAUMA2_FLR_1:ER_EXAM4_FLR_1_FLOOR
  0
3DFACE
  8
ER_TRAUMA2_FLR_1
 62
  8
 10
       70.10400
 20
       53.34000
 30
        0.00000
 11
       70.10400
 21
       48.76800
 31
        0.00000
 12
       64.00800
 22
       48.76800
 32
        0.00000
 13
       64.00800
 23
       53.34000
 33
        0.00000
999
ER_TRAUMA2_FLR_1:ER_EXAM4_FLR_1_CEILING
  0
3DFACE
  8
ER_TRAUMA2_FLR_1
 62
 15
 10
       64.00800
 20
       53.34000
 30
        4.26830
 11
       64.00800
 21
       48.76800
 31
        4.26830
 12
       70.10400
 22
       48.76800
 32
        4.26830
 13
       70.10400
 23
       53.34000
 33
        4.26830
999
ER_TRIAGE_MULT4_FLR_1:ER_EXAM5_MULT4_FLR_1_WALL_EAST
  0
3DFACE
  8
ER_TRIAGE_MULT4_FLR_1
 62
 43
 10
       45.72000
 20
       48.76800
 30
        4.26830
 11
       45.72000
 21
       48.76800
 31
        0.00000
 12
       45.72000
 22
       53.34000
 32
        0.00000
 13
       45.72000
 23
       53.34000
 33
        4.26830
999
ER_TRIAGE_MULT4_FLR_1:ER_EXAM5_MULT4_FLR_1_WALL_NORTH
  0
3DFACE
  8
ER_TRIAGE_MULT4_FLR_1
 62
 43
 10
       45.72000
 20
       53.34000
 30
        4.26830
 11
       45.72000
 21
       53.34000
 31
        0.00000
 12
       39.62400
 22
       53.34000
 32
        0.00000
 13
       39.62400
 23
       53.34000
 33
        4.26830
999
ER_TRIAGE_MULT4_FLR_1:ER_EXAM5_MULT4_FLR_1_WALL_SOUTH
  0
3DFACE
  8
ER_TRIAGE_MULT4_FLR_1
 62
 43
 10
       39.62400
 20
       48.76800
 30
        4.26830
 11
       39.62400
 21
       48.76800
 31
        0.00000
 12
       45.72000
 22
       48.76800
 32
        0.00000
 13
       45.72000
 23
       48.76800
 33
        4.26830
999
ER_TRIAGE_MULT4_FLR_1:ER_EXAM5_MULT4_FLR_1_WALL_WEST
  0
3DFACE
  8
ER_TRIAGE_MULT4_FLR_1
 62
 43
 10
       39.62400
 20
       53.34000
 30
        4.26830
 11
       39.62400
 21
       53.34000
 31
        0.00000
 12
       39.62400
 22
       48.76800
 32
        0.00000
 13
       39.62400
 23
       48.76800
 33
        4.26830
999
ER_TRIAGE_MULT4_FLR_1:ER_EXAM5_MULT4_FLR_1_FLOOR
  0
3DFACE
  8
ER_TRIAGE_MULT4_FLR_1
 62
  8
 10
       45.72000
 20
       53.34000
 30
        0.00000
 11
       45.72000
 21
       48.76800
 31
        0.00000
 12
       39.62400
 22
       48.76800
 32
        0.00000
 13
       39.62400
 23
       53.34000
 33
        0.00000
999
ER_TRIAGE_MULT4_FLR_1:ER_EXAM5_MULT4_FLR_1_CEILING
  0
3DFACE
  8
ER_TRIAGE_MULT4_FLR_1
 62
 15
 10
       39.62400
 20
       53.34000
 30
        4.26830
 11
       39.62400
 21
       48.76800
 31
        4.26830
 12
       45.72000
 22
       48.76800
 32
        4.26830
 13
       45.72000
 23
       53.34000
 33
        4.26830
999
ICU_FLR_2:ICU_FLR_2_WALL_EAST
  0
3DFACE
  8
ICU_FLR_2
 62
 43
 10
       28.95600
 20
        0.00000
 30
        8.53660
 11
       28.95600
 21
        0.00000
 31
        4.26830
 12
       28.95600
 22
       21.34150
 32
        4.26830
 13
       28.95600
 23
       21.34150
 33
        8.53660
999
ICU_FLR_2:ICU_FLR_2_WALL_NORTH
  0
3DFACE
  8
ICU_FLR_2
 62
 43
 10
       28.95600
 20
       21.34150
 30
        8.53660
 11
       28.95600
 21
       21.34150
 31
        4.26830
 12
        0.00000
 22
       21.34150
 32
        4.26830
 13
        0.00000
 23
       21.34150
 33
        8.53660
999
ICU_FLR_2:ICU_FLR_2_WALL_SOUTH
  0
3DFACE
  8
ICU_FLR_2
 62
 43
 10
        0.00000
 20
        0.00000
 30
        8.53660
 11
        0.00000
 21
        0.00000
 31
        4.26830
 12
       28.95600
 22
        0.00000
 32
        4.26830
 13
       28.95600
 23
        0.00000
 33
        8.53660
999
ICU_FLR_2:ICU_FLR_2_WALL_WEST
  0
3DFACE
  8
ICU_FLR_2
 62
 43
 10
        0.00000
 20
       21.34150
 30
        8.53660
 11
        0.00000
 21
       21.34150
 31
        4.26830
 12
        0.00000
 22
        0.00000
 32
        4.26830
 13
        0.00000
 23
        0.00000
 33
        8.53660
999
ICU_FLR_2:ICU_FLR_2_WALL_WEST_WINDOW
  0
3DFACE
  8
ICU_FLR_2
 62
143
 10
        0.00000
 20
       20.93600
 30
        6.40100
 11
        0.00000
 21
       20.93600
 31
        5.18200
 12
        0.00000
 22
        0.40000
 32
        5.18200
 13
        0.00000
 23
[...]
 32
        8.53660
 13
        6.09600
 23
        0.00000
 33
       12.80490
999
PATROOM6_FLR_3:PATROOM6_FLR_3_WALL_SOUTH_WINDOW
  0
3DFACE
  8
PATROOM6_FLR_3
 62
143
 10
        0.36600
 20
        0.00000
 30
       10.66800
 11
        0.36600
 21
        0.00000
 31
        9.44900
 12
        5.73000
 22
        0.00000
 32
        9.44900
 13
        5.73000
 23
        0.00000
 33
       10.66800
999
PATROOM6_FLR_3:PATROOM6_FLR_3_WALL_WEST
  0
3DFACE
  8
PATROOM6_FLR_3
 62
 43
 10
        0.00000
 20
        4.57200
 30
       12.80490
 11
        0.00000
 21
        4.57200
 31
        8.53660
 12
        0.00000
 22
        0.00000
 32
        8.53660
 13
        0.00000
 23
        0.00000
 33
       12.80490
999
PATROOM6_FLR_3:PATROOM6_FLR_3_WALL_WEST_WINDOW
  0
3DFACE
  8
PATROOM6_FLR_3
 62
143
 10
        0.00000
 20
        4.29800
 30
       10.66800
 11
        0.00000
 21
        4.29800
 31
        9.44900
 12
        0.00000
 22
        0.27400
 32
        9.44900
 13
        0.00000
 23
        0.27400
 33
       10.66800
999
PATROOM6_FLR_3:PATROOM6_FLR_3_FLOOR
  0
3DFACE
  8
PATROOM6_FLR_3
 62
  8
 10
        6.09600
 20
        4.57200
 30
        8.53660
 11
        6.09600
 21
        0.00000
 31
        8.53660
 12
        0.00000
 22
        0.00000
 32
        8.53660
 13
        0.00000
 23
        4.57200
 33
        8.53660
999
PATROOM6_FLR_3:PATROOM6_FLR_3_CEILING
  0
3DFACE
  8
PATROOM6_FLR_3
 62
 15
 10
        0.00000
 20
        4.57200
 30
       12.80490
 11
        0.00000
 21
        0.00000
 31
       12.80490
 12
        6.09600
 22
        0.00000
 32
       12.80490
 13
        6.09600
 23
        4.57200
 33
       12.80490
999
PATROOM6_FLR_4:PATROOM6_FLR_4_WALL_EAST
  0
3DFACE
  8
PATROOM6_FLR_4
 62
 43
 10
        6.09600
 20
        0.00000
 30
       17.07320
 11
        6.09600
 21
        0.00000
 31
       12.80490
 12
        6.09600
 22
        4.57200
 32
       12.80490
 13
        6.09600
 23
        4.57200
 33
       17.07320
999
PATROOM6_FLR_4:PATROOM6_FLR_4_WALL_NORTH
  0
3DFACE
  8
PATROOM6_FLR_4
 62
 43
 10
        6.09600
 20
        4.57200
 30
       17.07320
 11
        6.09600
 21
        4.57200
 31
       12.80490
 12
        0.00000
 22
        4.57200
 32
       12.80490
 13
        0.00000
 23
        4.57200
 33
       17.07320
999
PATROOM6_FLR_4:PATROOM6_FLR_4_WALL_SOUTH
  0
3DFACE
  8
PATROOM6_FLR_4
 62
 43
 10
        0.00000
 20
        0.00000
 30
       17.07320
 11
        0.00000
 21
        0.00000
 31
       12.80490
 12
        6.09600
 22
        0.00000
 32
       12.80490
 13
        6.09600
 23
        0.00000
 33
       17.07320
999
PATROOM6_FLR_4:PATROOM6_FLR_4_WALL_SOUTH_WINDOW
  0
3DFACE
  8
PATROOM6_FLR_4
 62
143
 10
        0.36600
 20
        0.00000
 30
       14.93500
 11
        0.36600
 21
        0.00000
 31
       13.71600
 12
        5.73000
 22
        0.00000
 32
       13.71600
 13
        5.73000
 23
        0.00000
 33
       14.93500
999
PATROOM6_FLR_4:PATROOM6_FLR_4_WALL_WEST
  0
3DFACE
  8
PATROOM6_FLR_4
 62
 43
 10
        0.00000
 20
        4.57200
 30
       17.07320
 11
        0.00000
 21
        4.57200
 31
       12.80490
 12
        0.00000
 22
        0.00000
 32
       12.80490
 13
        0.00000
 23
        0.00000
 33
       17.07320
999
PATROOM6_FLR_4:PATROOM6_FLR_4_WALL_WEST_WINDOW
  0
3DFACE
  8
PATROOM6_FLR_4
 62
143
 10
        0.00000
 20
        4.29800
 30
       14.93500
 11
        0.00000
 21
        4.29800
 31
       13.71600
 12
        0.00000
 22
        0.27400
 32
       13.71600
 13
        0.00000
 23
        0.27400
 33
       14.93500
999
PATROOM6_FLR_4:PATROOM6_FLR_4_FLOOR
  0
3DFACE
  8
PATROOM6_FLR_4
 62
  8
 10
        6.09600
 20
        4.57200
 30
       12.80490
 11
        6.09600
 21
        0.00000
 31
       12.80490
 12
        0.00000
 22
        0.00000
 32
       12.80490
 13
        0.00000
 23
        4.57200
 33
       12.80490
999
PATROOM6_FLR_4:PATROOM6_FLR_4_CEILING
  0
3DFACE
  8
PATROOM6_FLR_4
 62
 15
 10
        0.00000
 20
        4.57200
 30
       17.07320
 11
        0.00000
 21
        0.00000
 31
       17.07320
 12
        6.09600
 22
        0.00000
 32
       17.07320
 13
        6.09600
 23
        4.57200
 33
       17.07320
999
PATROOM7_MULT10_FLR_3:PATROOM7_MULT10_FLR_3_WALL_EAST
  0
3DFACE
  8
PATROOM7_MULT10_FLR_3
 62
 43
 10
        4.57200
 20
        4.57200
 30
       12.80490
 11
        4.57200
 21
        4.57200
 31
        8.53660
 12
        4.57200
 22
        8.99200
 32
        8.53660
 13
        4.57200
 23
        8.99200
 33
       12.80490
999
PATROOM7_MULT10_FLR_3:PATROOM7_MULT10_FLR_3_WALL_NORTH
  0
3DFACE
  8
PATROOM7_MULT10_FLR_3
 62
 43
 10
        4.57200
 20
        8.99200
 30
       12.80490
 11
        4.57200
 21
        8.99200
 31
        8.53660
 12
        0.00000
 22
        8.99200
 32
        8.53660
 13
        0.00000
 23
        8.99200
 33
       12.80490
999
PATROOM7_MULT10_FLR_3:PATROOM7_MULT10_FLR_3_WALL_SOUTH
  0
3DFACE
  8
PATROOM7_MULT10_FLR_3
 62
 43
 10
        0.00000
 20
        4.57200
 30
       12.80490
 11
        0.00000
 21
        4.57200
 31
        8.53660
 12
        4.57200
 22
        4.57200
 32
        8.53660
 13
        4.57200
 23
        4.57200
 33
       12.80490
999
PATROOM7_MULT10_FLR_3:PATROOM7_MULT10_FLR_3_WALL_WEST
  0
3DFACE
  8
PATROOM7_MULT10_FLR_3
 62
 43
 10
        0.00000
 20
        8.99200
 30
       12.80490
 11
        0.00000
 21
        8.99200
 31
        8.53660
 12
        0.00000
 22
        4.57200
 32
        8.53660
 13
        0.00000
 23
        4.57200
 33
       12.80490
999
PATROOM7_MULT10_FLR_3:PATROOM7_MULT10_FLR_3_WALL_WEST_WINDOW
  0
3DFACE
  8
PATROOM7_MULT10_FLR_3
 62
143
 10
        0.00000
 20
        8.72600
 30
       10.66800
 11
        0.00000
 21
        8.72600
 31
        9.44900
 12
        0.00000
 22
        4.83700
 32
        9.44900
 13
        0.00000
 23
        4.83700
 33
       10.66800
999
PATROOM7_MULT10_FLR_3:PATROOM7_MULT10_FLR_3_FLOOR
  0
3DFACE
  8
PATROOM7_MULT10_FLR_3
 62
  8
 10
        4.57200
 20
        8.99200
 30
        8.53660
 11
        4.57200
 21
        4.57200
 31
        8.53660
 12
        0.00000
 22
        4.57200
 32
        8.53660
 13
        0.00000
 23
        8.99200
 33
        8.53660
999
PATROOM7_MULT10_FLR_3:PATROOM7_MULT10_FLR_3_CEILING
  0
3DFACE
  8
PATROOM7_MULT10_FLR_3
 62
 15
 10
        0.00000
 20
        8.99200
 30
       12.80490
 11
        0.00000
 21
        4.57200
 31
       12.80490
 12
        4.57200
 22
        4.57200
 32
       12.80490
 13
        4.57200
 23
        8.99200
 33
       12.80490
999
PATROOM7_MULT10_FLR_4:PATROOM7_MULT10_FLR_4_WALL_EAST
  0
3DFACE
  8
PATROOM7_MULT10_FLR_4
 62
 43
 10
        4.57200
 20
        4.57200
 30
       17.07320
 11
        4.57200
 21
        4.57200
 31
       12.80490
 12
        4.57200
 22
        8.99200
 32
       12.80490
 13
        4.57200
 23
        8.99200
 33
       17.07320
999
PATROOM7_MULT10_FLR_4:PATROOM7_MULT10_FLR_4_WALL_NORTH
  0
3DFACE
  8
PATROOM7_MULT10_FLR_4
 62
 43
 10
        4.57200
 20
        8.99200
 30
       17.07320
 11
        4.57200
 21
        8.99200
 31
       12.80490
 12
        0.00000
 22
        8.99200
 32
       12.80490
 13
        0.00000
 23
        8.99200
 33
       17.07320
999
PATROOM7_MULT10_FLR_4:PATROOM7_MULT10_FLR_4_WALL_SOUTH
  0
3DFACE
  8
PATROOM7_MULT10_FLR_4
 62
 43
 10
        0.00000
 20
        4.57200
 30
       17.07320
 11
        0.00000
 21
        4.57200
 31
       12.80490
 12
        4.57200
 22
        4.57200
 32
       12.80490
 13
        4.57200
 23
        4.57200
 33
       17.07320
999
PATROOM7_MULT10_FLR_4:PATROOM7_MULT10_FLR_4_WALL_WEST
  0
3DFACE
  8
PATROOM7_MULT10_FLR_4
 62
 43
 10
        0.00000
 20
        8.99200
 30
       17.07320
 11
        0.00000
 21
        8.99200
 31
       12.80490
 12
        0.00000
 22
        4.57200
 32
       12.80490
 13
        0.00000
 23
        4.57200
 33
       17.07320
999
PATROOM7_MULT10_FLR_4:PATROOM7_MULT10_FLR_4_WALL_WEST_WINDOW
  0
3DFACE
  8
PATROOM7_MULT10_FLR_4
 62
143
 10
        0.00000
 20
        8.72600
 30
       14.93500
 11
        0.00000
 21
        8.72600
 31
       13.71600
 12
        0.00000
 22
        4.83700
 32
       13.71600
 13
        0.00000
 23
        4.83700
 33
       14.93500
999
PATROOM7_MULT10_FLR_4:PATROOM7_MULT10_FLR_4_FLOOR
  0
3DFACE
  8
PATROOM7_MULT10_FLR_4
 62
  8
 10
        4.57200
 20
        8.99200
 30
       12.80490
 11
        4.57200
 21
        4.57200
 31
       12.80490
 12
        0.00000
 22
        4.57200
 32
       12.80490
 13
        0.00000
 23
        8.99200
 33
       12.80490
999
PATROOM7_MULT10_FLR_4:PATROOM7_MULT10_FLR_4_CEILING
  0
3DFACE
  8
PATROOM7_MULT10_FLR_4
 62
 15
 10
        0.00000
 20
        8.99200
 30
       17.07320
 11
        0.00000
 21
        4.57200
 31
       17.07320
 12
        4.57200
 22
        4.57200
 32
       17.07320
 13
        4.57200
 23
        8.99200
 33
       17.07320
999
PATROOM8_FLR_3:PATROOM8_FLR_3_WALL_EAST
  0
3DFACE
  8
PATROOM8_FLR_3
 62
 43
 10
        6.09600
 20
       48.76800
 30
       12.80490
 11
        6.09600
 21
       48.76800
 31
        8.53660
 12
        6.09600
 22
       53.34000
 32
        8.53660
 13
        6.09600
 23
       53.34000
 33
       12.80490
999
PATROOM8_FLR_3:PATROOM8_FLR_3_WALL_NORTH
  0
3DFACE
  8
PATROOM8_FLR_3
 62
 43
 10
        6.09600
 20
       53.34000
 30
       12.80490
 11
        6.09600
 21
       53.34000
 31
        8.53660
 12
        0.00000
 22
       53.34000
 32
        8.53660
 13
        0.00000
 23
       53.34000
 33
       12.80490
999
PATROOM8_FLR_3:PATROOM8_FLR_3_WALL_NORTH_WINDOW
  0
3DFACE
  8
PATROOM8_FLR_3
 62
143
 10
        5.73000
 20
       53.34000
 30
       10.66800
 11
        5.73000
 21
       53.34000
 31
        9.44900
 12
        0.36600
 22
       53.34000
 32
        9.44900
 13
        0.36600
 23
       53.34000
 33
       10.66800
999
PATROOM8_FLR_3:PATROOM8_FLR_3_WALL_SOUTH
  0
3DFACE
  8
PATROOM8_FLR_3
 62
 43
 10
        0.00000
 20
       48.76800
 30
       12.80490
 11
        0.00000
 21
       48.76800
 31
        8.53660
 12
        6.09600
 22
       48.76800
 32
        8.53660
 13
        6.09600
 23
       48.76800
 33
       12.80490
999
PATROOM8_FLR_3:PATROOM8_FLR_3_WALL_WEST
  0
3DFACE
  8
PATROOM8_FLR_3
 62
 43
 10
        0.00000
 20
       53.34000
 30
       12.80490
 11
        0.00000
 21
       53.34000
 31
        8.53660
 12
        0.00000
 22
       48.76800
 32
        8.53660
 13
        0.00000
 23
       48.76800
 33
       12.80490
999
PATROOM8_FLR_3:PATROOM8_FLR_3_WALL_WEST_WINDOW
  0
3DFACE
  8
PATROOM8_FLR_3
 62
143
 10
        0.00000
 20
       53.06600
 30
       10.66800
 11
        0.00000
 21
       53.06600
 31
        9.44900
 12
        0.00000
 22
       49.04200
 32
        9.44900
 13
        0.00000
 23
       49.04200
 33
       10.66800
999
PATROOM8_FLR_3:PATROOM8_FLR_3_FLOOR
  0
3DFACE
  8
PATROOM8_FLR_3
 62
  8
 10
        6.09600
 20
       53.34000
 30
        8.53660
 11
        6.09600
 21
       48.76800
 31
        8.53660
 12
        0.00000
 22
       48.76800
 32
        8.53660
 13
        0.00000
 23
       53.34000
 33
        8.53660
999
PATROOM8_FLR_3:PATROOM8_FLR_3_CEILING
  0
3DFACE
  8
PATROOM8_FLR_3
 62
 15
 10
        0.00000
 20
       53.34000
 30
       12.80490
 11
        0.00000
 21
       48.76800
 31
       12.80490
 12
        6.09600
 22
       48.76800
 32
       12.80490
 13
        6.09600
 23
       53.34000
 33
       12.80490
999
PATROOM8_FLR_4:PATROOM8_FLR_4_WALL_EAST
  0
3DFACE
  8
PATROOM8_FLR_4
 62
 43
 10
        6.09600
 20
       48.76800
 30
       17.07320
 11
        6.09600
 21
       48.76800
 31
       12.80490
 12
        6.09600
 22
       53.34000
 32
       12.80490
 13
        6.09600
 23
       53.34000
 33
       17.07320
999
PATROOM8_FLR_4:PATROOM8_FLR_4_WALL_NORTH
  0
3DFACE
  8
PATROOM8_FLR_4
 62
 43
 10
        6.09600
 20
       53.34000
 30
       17.07320
 11
        6.09600
 21
       53.34000
 31
       12.80490
 12
        0.00000
 22
       53.34000
 32
       12.80490
 13
        0.00000
 23
       53.34000
 33
       17.07320
999
PATROOM8_FLR_4:PATROOM8_FLR_4_WALL_NORTH_WINDOW
  0
3DFACE
  8
PATROOM8_FLR_4
 62
143
 10
        5.73000
 20
       53.34000
 30
       14.93500
 11
        5.73000
 21
       53.34000
 31
       13.71600
 12
        0.36600
 22
       53.34000
 32
       13.71600
 13
        0.36600
 23
       53.34000
 33
       14.93500
999
PATROOM8_FLR_4:PATROOM8_FLR_4_WALL_SOUTH
  0
3DFACE
  8
PATROOM8_FLR_4
 62
 43
 10
        0.00000
 20
       48.76800
 30
       17.07320
 11
        0.00000
 21
       48.76800
 31
       12.80490
 12
        6.09600
 22
       48.76800
 32
       12.80490
 13
        6.09600
 23
       48.76800
 33
       17.07320
999
PATROOM8_FLR_4:PATROOM8_FLR_4_WALL_WEST
  0
3DFACE
  8
PATROOM8_FLR_4
 62
 43
 10
        0.00000
 20
       53.34000
 30
       17.07320
 11
        0.00000
 21
       53.34000
 31
       12.80490
 12
        0.00000
 22
       48.76800
 32
       12.80490
 13
        0.00000
 23
       48.76800
 33
       17.07320
999
PATROOM8_FLR_4:PATROOM8_FLR_4_WALL_WEST_WINDOW
  0
3DFACE
  8
PATROOM8_FLR_4
 62
143
 10
        0.00000
 20
       53.06600
 30
       14.93500
 11
        0.00000
 21
       53.06600
 31
       13.71600
 12
        0.00000
 22
       49.04200
 32
       13.71600
 13
        0.00000
 23
       49.04200
 33
       14.93500
999
PATROOM8_FLR_4:PATROOM8_FLR_4_FLOOR
  0
3DFACE
  8
PATROOM8_FLR_4
 62
  8
 10
        6.09600
 20
       53.34000
 30
       12.80490
 11
        6.09600
 21
       48.76800
 31
       12.80490
 12
        0.00000
 22
       48.76800
 32
       12.80490
 13
        0.00000
 23
       53.34000
 33
       12.80490
999
PATROOM8_FLR_4:PATROOM8_FLR_4_CEILING
  0
3DFACE
  8
PATROOM8_FLR_4
 62
 15
 10
        0.00000
 20
       53.34000
 30
       17.07320
 11
        0.00000
 21
       48.76800
 31
       17.07320
 12
        6.09600
 22
       48.76800
 32
       17.07320
 13
        6.09600
 23
       53.34000
 33
       17.07320
999
PHYSTHERAPY_FLR_3:PHYSTHERAPY_FLR_3_WALL_EAST
  0
3DFACE
  8
PHYSTHERAPY_FLR_3
 62
 43
 10
       60.96000
 20
       19.81200
 30
       12.80490
 11
       60.96000
 21
       19.81200
 31
        8.53660
 12
       60.96000
 22
       42.67200
 32
        8.53660
 13
       60.96000
 23
       42.67200
 33
       12.80490
999
PHYSTHERAPY_FLR_3:PHYSTHERAPY_FLR_3_WALL_NORTH
  0
3DFACE
  8
PHYSTHERAPY_FLR_3
 62
 43
 10
       60.96000
 20
       42.67200
 30
       12.80490
 11
       60.96000
 21
       42.67200
 31
        8.53660
 12
       39.62400
 22
       42.67200
 32
        8.53660
 13
       39.62400
 23
       42.67200
 33
       12.80490
999
PHYSTHERAPY_FLR_3:PHYSTHERAPY_FLR_3_WALL_SOUTH
  0
3DFACE
  8
PHYSTHERAPY_FLR_3
 62
 43
 10
       39.62400
 20
       19.81200
 30
       12.80490
 11
       39.62400
 21
       19.81200
 31
        8.53660
 12
       60.96000
 22
       19.81200
 32
        8.53660
 13
       60.96000
 23
       19.81200
 33
       12.80490
999
PHYSTHERAPY_FLR_3:PHYSTHERAPY_FLR_3_WALL_WEST
  0
3DFACE
  8
PHYSTHERAPY_FLR_3
 62
 43
 10
       39.62400
 20
       42.67200
 30
       12.80490
 11
       39.62400
 21
       42.67200
 31
        8.53660
 12
       39.62400
 22
       19.81200
 32
        8.53660
 13
       39.62400
 23
       19.81200
 33
       12.80490
999
PHYSTHERAPY_FLR_3:PHYSTHERAPY_FLR_3_FLOOR
  0
3DFACE
  8
PHYSTHERAPY_FLR_3
 62
  8
 10
       60.96000
 20
       42.67200
 30
        8.53660
 11
       60.96000
 21
       19.81200
 31
        8.53660
 12
       39.62400
 22
       19.81200
 32
        8.53660
 13
       39.62400
 23
       42.67200
 33
        8.53660
999
PHYSTHERAPY_FLR_3:PHYSTHERAPY_FLR_3_CEILING
  0
3DFACE
  8
PHYSTHERAPY_FLR_3
 62
 15
 10
       39.62400
 20
       42.67200
 30
       12.80490
 11
       39.62400
 21
       19.81200
 31
       12.80490
 12
       60.96000
 22
       19.81200
 32
       12.80490
 13
       60.96000
 23
       42.67200
 33
       12.80490
999
RADIOLOGY_FLR_4:RADIOLOGY_FLR_4_WALL_EAST
  0
3DFACE
  8
RADIOLOGY_FLR_4
 62
 43
 10
       60.96000
 20
       19.81200
 30
       17.07320
 11
       60.96000
 21
       19.81200
 31
       12.80490
 12
       60.96000
 22
       42.67200
 32
       12.80490
 13
       60.96000
 23
       42.67200
 33
       17.07320
999
RADIOLOGY_FLR_4:RADIOLOGY_FLR_4_WALL_NORTH
  0
3DFACE
  8
RADIOLOGY_FLR_4
 62
 43
 10
       60.96000
 20
       42.67200
 30
       17.07320
 11
       60.96000
 21
       42.67200
 31
       12.80490
 12
       39.62400
 22
       42.67200
 32
       12.80490
 13
       39.62400
 23
       42.67200
 33
       17.07320
999
RADIOLOGY_FLR_4:RADIOLOGY_FLR_4_WALL_SOUTH
  0
3DFACE
  8
RADIOLOGY_FLR_4
 62
 43
 10
       39.62400
 20
       19.81200
 30
       17.07320
 11
       39.62400
 21
       19.81200
 31
       12.80490
 12
       60.96000
 22
       19.81200
 32
       12.80490
 13
       60.96000
 23
       19.81200
 33
       17.07320
999
RADIOLOGY_FLR_4:RADIOLOGY_FLR_4_WALL_WEST
  0
3DFACE
  8
RADIOLOGY_FLR_4
 62
 43
 10
       39.62400
 20
       42.67200
 30
       17.07320
 11
       39.62400
 21
       42.67200
 31
       12.80490
 12
       39.62400
 22
       19.81200
 32
       12.80490
 13
       39.62400
 23
       19.81200
 33
       17.07320
999
RADIOLOGY_FLR_4:RADIOLOGY_FLR_4_FLOOR
  0
3DFACE
  8
RADIOLOGY_FLR_4
 62
  8
 10
       60.96000
 20
       42.67200
 30
       12.80490
 11
       60.96000
 21
       19.81200
 31
       12.80490
 12
       39.62400
 22
       19.81200
 32
       12.80490
 13
       39.62400
 23
       42.67200
 33
       12.80490
999
RADIOLOGY_FLR_4:RADIOLOGY_FLR_4_CEILING
  0
3DFACE
  8
RADIOLOGY_FLR_4
 62
 15
 10
       39.62400
 20
       42.67200
 30
       17.07320
 11
       39.62400
 21
       19.81200
 31
       17.07320
 12
       60.96000
 22
       19.81200
 32
       17.07320
 13
       60.96000
 23
       42.67200
 33
       17.07320
  0
ENDSEC
  0
EOF
