  Processing Data Dictionary (Energy+.idd) File -- Complete
  Maximum number of Alpha Args=        4500
  Maximum number of Numeric Args=       21040
  Number of Object Definitions=         689
  Number of Section Definitions=           2
  Total Number of Alpha Fields=       16712
  Total Number of Numeric Fields=       38446
  Total Number of Fields=       55158
  Processing Input Data File (in.idf) -- Start
      1 !-Generator IDFEditor 1.42
      2 !-Option OriginalOrderTop UseSpecialFormat
      3 !-NOTE: All comments with '!-' are ignored by the IDFEditor and are generated automatically.
      4 !-      Use '!' comments if they need to be retained when using the IDFEditor.
      5 ! RefBldgHospitalNew2004_Chicago.idf
      6 !
      7 ! This example file is based on Version 1.3_5.0 and was transitioned to Version 6.0 using the transition utility
      8 !
      9 ! DOE Commercial Reference Building
     10 ! Hospital, new construction 90.1-2004
     11 ! Version 1.3_5.0
     12 ! EnergyPlus Version 6.0
     13 ! ASHRAE Standards 90.1-2004 and 62-1999
     14 !
     15 ! Description:  Five story hospital
     16 ! Form:         Area = 22,422 m2 (241,351 ft2); Number of Stories = 5 + Basement; Aspect ratio = 1.31
     17 ! Envelope:     Envelope thermal properties vary with climate according to ASHRAE Standard 90.1-2004.
     18 !               Opaque constructions: mass walls; built-up flat roof (insulation above deck); basement
     19 !               Windows: window-to-wall ratio = 11.2% (N), 12.1% (E), 13.3% (S), 23.2%(W), 14.6% (overall)
     20 !               Infiltration in perimeter zones only
     21 !                            = 0.4 cfm/ft2 above grade wall area at 0.3 in wc (75 Pa) adjusted to 0.016 in wc (4 Pa).
     22 !                              25% of full value when ventilation system on.
     23 ! HVAC:         Water cooled electric chiller, natural gas boiler, 2 VAV systems, 2 CAV systems
     24 !               Economizer per 90.1-2004 on VAV systems
     25 !               Chiller part load curve corrected from original
     26 !
     27 ! Exhaust:      Kitchen exhaust 2501 L/s (5300 cfm), 30% of exhaust make-up air from dining
     28 !               Kitchen exhaust fan modeled as exterior load to avoid getting double make-up air
     29 ! Refrigeration: Walk-in cooler and walk-in freezer
     30 ! Elevators:    8 @ 25 HP each, 91% motor efficiency, motor heat exhausted directly
     31 !
     32 ! Int. gains:   W/m2 (W/ft2)  lights          elec plug       gas plug
     33 !               Basement      11.8 (1.1)      8.07 (0.75)     0
     34 !               ER Rooms      29.1 (2.7)      16.0 (1.5)      0
     35 !               Trauma        29.1 (2.7)      43.0 (4.0)      0
     36 !               Triage        29.1 (2.7)      29.1 (2.7)      0
     37 !               OR Rooms      23.7 (2.2)      43.0 (4.0)      0
     38 !               Nurse Stat.   12.7 (1.2)      11.2 (1.0)      0
     39 !               ICU Rooms     8.61 (0.8)      32.3 (3.0)      0
     40 !               Pat. Rooms    7.53 (0.7)      21.5 (2.0)      0
     41 !               Lobby         15.8 (1.5)      1.08 (0.1)      0
     42 !               Corridor      10.7 (1.0)      0.0 (0.0)       0
     43 !               Office        11.8 (1.1)      10.8 (1.0)      0
     44 !               Lab           15.1 (1.4)      43.0 (4.0)      0
     45 !               Kitchen       12.9 (1.2)      80.7 (7.5)      305 (28.3)
     46 !               Dining areas  9.68 (0.9)      10.8 (1.0)      0
     47 !
     48 ! Detached Shading:               None
     49 ! Daylight:                       None
     50 ! Natural Ventilation:            None
     51 ! Zonal Equipment:                None
     52 ! Air Primary Loops:              VAV with Hot Water Reheat, CAV with Hot Water Reheat
     53 ! Plant Loops:                    SHWSys1, HeatSys1, CoolSys1, TowerWaterSys
     54 ! System Equipment Autosize:      Yes
     55 ! Purchased Cooling:              None
     56 ! Purchased Heating:              None
     57 ! Coils:                          Coil:Cooling:Water:DetailedGeometry; Coil:Heating:Water
     58 ! Pumps:                          Yes
     59 ! Boilers:                        Boiler:HotWater (gas-fired)
     60 ! Chillers:                       Chiller:Electric:ReformulatedEIR (water-cooled)
     61 !***** NOTICE *****
     62 !***** The Reference Buildings were prepared as an account of work sponsored by an *****
     63 !***** agency of the United States government. Neither the United States *****
     64 !***** government nor any agency thereof, nor any of their employees, makes *****
     65 !***** any warranty, express or implied, or assumes any legal liability or *****
     66 !***** responsibility for the accuracy, completeness, or usefulness of any *****
     67 !***** information, apparatus, product, or process disclosed, or represents *****
     68 !***** that its use would not infringe privately owned rights. Reference *****
     69 !***** herein to any specific commercial product, process, or service by *****
     70 !***** trade name, trademark, manufacturer, or otherwise does not necessarily *****
     71 !***** constitute or imply its endorsement, recommendation, or favoring by *****
     72 !***** the United States government or any agency thereof. The views and *****
     73 !***** opinions of authors expressed herein do not necessarily state or *****
     74 !***** reflect those of the United States government or any agency thereof. *****
     75 !***** Access to and use of the Reference Buildings imposes the following obligations *****
     76 !***** on the user. The user agrees to credit DOE, NREL, PNNL, and LBNL in *****
     77 !***** any publication(s) that that result from the use of Reference Buildings. *****
     78 !***** However, the names of DOE/NREL/PNNL/LBNL may not be used in any *****
     79 !***** advertising or publicity that implies endorsement or promotion of any *****
     80 !***** products, services or commercial entities. *****
     81 ! Reference citation for the Commercial Reference Buildings:
     82 ! Deru, M.; Field, K.; Studer, D.; Benne, K.; Griffith, B.; Torcellini, P;
     83 ! Halverson, M.; Winiarski, D.; Liu, B.; Rosenberg, M.; Huang, J.;
     84 ! Yazdanian, M.; Crawley, D. (2010).
     85 ! U.S. Department of Energy Commercial Reference Building Models of the National Building Stock.
     86 ! Washington, DC: U.S. Department of Energy, Energy Efficiency and
     87 ! Renewable Energy, Office of Building Technologies.
     88 ! ***GENERAL SIMULATION PARAMETERS***
     89 ! Number of Zones: 55
     90 
     91   Version,8.0;
     92 
     93   ExternalInterface,
     94     PtolemyServer;           !- Name of External Interface
     95 
     96   SimulationControl,
     97     YES,                     !- Do Zone Sizing Calculation
     98     YES,                     !- Do System Sizing Calculation
     99     YES,                     !- Do Plant Sizing Calculation
    100     NO,                     !- Run Simulation for Sizing Periods
    101     YES;                      !- Run Simulation for Weather File Run Periods
    102 
    103   Building,
    104     Ref Bldg Hospital New2004_v1.3_5.0,  !- Name
    105     0.0000,                  !- North Axis {deg}
    106     City,                    !- Terrain
    107     0.0400,                  !- Loads Convergence Tolerance Value
    108     0.2000,                  !- Temperature Convergence Tolerance Value {deltaC}
    109     FullInteriorAndExterior, !- Solar Distribution
    110     25,                      !- Maximum Number of Warmup Days
    111     6;                       !- Minimum Number of Warmup Days
    112 
    113   RunPeriod,
    114     ,                        !- Name
    115     6,                       !- Begin Month
    116     1,                       !- Begin Day of Month
    117     6,                       !- End Month
    118     1,                       !- End Day of Month
    119     Monday,                  !- Day of Week for Start Day
    120     No,                      !- Use Weather File Holidays and Special Days
    121     No,                      !- Use Weather File Daylight Saving Period
    122     No,                      !- Apply Weekend Holiday Rule
    123     Yes,                     !- Use Weather File Rain Indicators
    124     Yes,                     !- Use Weather File Snow Indicators
    125     1.0000;                  !- Number of Times Runperiod to be Repeated
    126 
    127 ! ***HOLIDAYS & DAYLIGHT SAVINGS***
    128 
    129   RunPeriodControl:DaylightSavingTime,
    130     2nd Sunday in March,     !- Start Date
    131     1st Sunday in November;  !- End Date
    132 
    133   RunPeriodControl:SpecialDays,
    134     New Years Day,           !- Name
    135     January 1,               !- Start Date
    136     1,                       !- Duration {days}
    137     Holiday;                 !- Special Day Type
    138 
    139   RunPeriodControl:SpecialDays,
    140     Veterans Day,            !- Name
    141     November 11,             !- Start Date
    142     1,                       !- Duration {days}
    143     Holiday;                 !- Special Day Type
    144 
    145   RunPeriodControl:SpecialDays,
    146     Christmas,               !- Name
    147     December 25,             !- Start Date
    148     1,                       !- Duration {days}
    149     Holiday;                 !- Special Day Type
    150 
    151   RunPeriodControl:SpecialDays,
    152     Independence Day,        !- Name
    153     July 4,                  !- Start Date
    154     1,                       !- Duration {days}
    155     Holiday;                 !- Special Day Type
    156 
    157   RunPeriodControl:SpecialDays,
    158     MLK Day,                 !- Name
    159     3rd Monday in January,   !- Start Date
    160     1,                       !- Duration {days}
    161     Holiday;                 !- Special Day Type
    162 
    163   RunPeriodControl:SpecialDays,
    164     Presidents Day,          !- Name
    165     3rd Monday in February,  !- Start Date
    166     1,                       !- Duration {days}
    167     Holiday;                 !- Special Day Type
    168 
    169   RunPeriodControl:SpecialDays,
    170     Memorial Day,            !- Name
    171     Last Monday in May,      !- Start Date
    172     1,                       !- Duration {days}
    173     Holiday;                 !- Special Day Type
    174 
    175   RunPeriodControl:SpecialDays,
    176     Labor Day,               !- Name
    177     1st Monday in September, !- Start Date
    178     1,                       !- Duration {days}
    179     Holiday;                 !- Special Day Type
    180 
    181   RunPeriodControl:SpecialDays,
    182     Columbus Day,            !- Name
    183     2nd Monday in October,   !- Start Date
    184     1,                       !- Duration {days}
    185     Holiday;                 !- Special Day Type
    186 
    187   RunPeriodControl:SpecialDays,
    188     Thanksgiving,            !- Name
    189     4th Thursday in November,!- Start Date
    190     1,                       !- Duration {days}
    191     Holiday;                 !- Special Day Type
    192 
    193 ! ***SCHEDULE TYPES***
    194 
    195   ScheduleTypeLimits,
    196     Any Number;              !- Name
    197 
    198   ScheduleTypeLimits,
    199     Fraction,                !- Name
    200     0.0,                     !- Lower Limit Value
    201     1.0,                     !- Upper Limit Value
    202     CONTINUOUS;              !- Numeric Type
    203 
    204   ScheduleTypeLimits,
    205     Temperature,             !- Name
    206     -60,                     !- Lower Limit Value
    207     200,                     !- Upper Limit Value
    208     CONTINUOUS;              !- Numeric Type
    209 
    210   ScheduleTypeLimits,
    211     On/Off,                  !- Name
    212     0,                       !- Lower Limit Value
    213     1,                       !- Upper Limit Value
    214     DISCRETE;                !- Numeric Type
    215 
    216   ScheduleTypeLimits,
    217     Control Type,            !- Name
    218     0,                       !- Lower Limit Value
    219     4,                       !- Upper Limit Value
    220     DISCRETE;                !- Numeric Type
    221 
    222   ScheduleTypeLimits,
    223     Humidity,                !- Name
    224     10,                      !- Lower Limit Value
    225     90,                      !- Upper Limit Value
    226     CONTINUOUS;              !- Numeric Type
    227 
    228   ScheduleTypeLimits,
    229     Number;                  !- Name
    230 
    231 ! ***ALWAYS ON SCHEDULE***
    232 
    233   Schedule:Compact,
    234     ALWAYS_ON,               !- Name
    235     On/Off,                  !- Schedule Type Limits Name
    236     Through: 12/31,          !- Field 1
    237     For: AllDays,            !- Field 2
    238     Until: 24:00,1;          !- Field 3
    239 
    240 ! ***MISC SIMULATION PARAMETERS***
    241 
    242   SurfaceConvectionAlgorithm:Inside,TARP;
    243 
    244   SurfaceConvectionAlgorithm:Outside,DOE-2;
    245 
    246   HeatBalanceAlgorithm,ConductionTransferFunction,200.0000;
    247 
    248   ZoneAirHeatBalanceAlgorithm,
    249     AnalyticalSolution;      !- Algorithm
    250 
    251   Sizing:Parameters,
    252     1.2,                     !- Heating Sizing Factor
    253     1.2,                     !- Cooling Sizing Factor
    254     4;                       !- Timesteps in Averaging Window
    255 
    256   ConvergenceLimits,
    257     2,                       !- Minimum System Timestep {minutes}
    258     25;                      !- Maximum HVAC Iterations
    259 
    260   ShadowCalculation,
    261     AverageOverDaysInFrequency,  !- Calculation Method
    262     7,                       !- Calculation Frequency
    263     15000;                   !- Maximum Figures in Shadow Overlap Calculations
    264 
    265   Timestep,4;
    266 
    267 ! WeatherFileName=USA_IL_Chicago-OHare_TMY2.epw
    268 
    269   Site:Location,
    270     USA IL-CHICAGO-OHARE,    !- Name
    271     41.77,                   !- Latitude {deg}
    272     -87.75,                  !- Longitude {deg}
    273     -6.00,                   !- Time Zone {hr}
    274     190;                     !- Elevation {m}
    275 
    276 ! CHICAGO_IL_USA Annual Heating 99.6%, MaxDB=-20.6°C
    277 
    278   SizingPeriod:DesignDay,
    279     CHICAGO Ann Htg 99.6% Condns DB,  !- Name
    280     1,                       !- Month
    281     21,                      !- Day of Month
    282     WinterDesignDay,         !- Day Type
    283     -20.6,                   !- Maximum Dry-Bulb Temperature {C}
    284     0.0,                     !- Daily Dry-Bulb Temperature Range {deltaC}
    285     ,                        !- Dry-Bulb Temperature Range Modifier Type
    286     ,                        !- Dry-Bulb Temperature Range Modifier Day Schedule Name
    287     Wetbulb,                 !- Humidity Condition Type
    288     -20.6,                   !- Wetbulb or DewPoint at Maximum Dry-Bulb {C}
    289     ,                        !- Humidity Condition Day Schedule Name
    290     ,                        !- Humidity Ratio at Maximum Dry-Bulb {kgWater/kgDryAir}
    291     ,                        !- Enthalpy at Maximum Dry-Bulb {J/kg}
    292     ,                        !- Daily Wet-Bulb Temperature Range {deltaC}
    293     99063.,                  !- Barometric Pressure {Pa}
    294     4.9,                     !- Wind Speed {m/s}
    295     270,                     !- Wind Direction {deg}
    296     No,                      !- Rain Indicator
    297     No,                      !- Snow Indicator
    298     No,                      !- Daylight Saving Time Indicator
    299     ASHRAEClearSky,          !- Solar Model Indicator
    300     ,                        !- Beam Solar Day Schedule Name
    301     ,                        !- Diffuse Solar Day Schedule Name
    302     ,                        !- ASHRAE Clear Sky Optical Depth for Beam Irradiance (taub) {dimensionless}
    303     ,                        !- ASHRAE Clear Sky Optical Depth for Diffuse Irradiance (taud) {dimensionless}
    304     0.00;                    !- Sky Clearness
    305 
    306 ! CHICAGO_IL_USA Annual Cooling (WB=>MDB) .4%, MDB=31.2°C WB=25.5°C
    307 
    308   SizingPeriod:DesignDay,
    309     CHICAGO Ann Clg .4% Condns WB=>MDB,  !- Name
    310     7,                       !- Month
    311     21,                      !- Day of Month
    312     SummerDesignDay,         !- Day Type
    313     31.2,                    !- Maximum Dry-Bulb Temperature {C}
    314     10.7,                    !- Daily Dry-Bulb Temperature Range {deltaC}
    315     ,                        !- Dry-Bulb Temperature Range Modifier Type
    316     ,                        !- Dry-Bulb Temperature Range Modifier Day Schedule Name
    317     Wetbulb,                 !- Humidity Condition Type
    318     25.5,                    !- Wetbulb or DewPoint at Maximum Dry-Bulb {C}
    319     ,                        !- Humidity Condition Day Schedule Name
    320     ,                        !- Humidity Ratio at Maximum Dry-Bulb {kgWater/kgDryAir}
    321     ,                        !- Enthalpy at Maximum Dry-Bulb {J/kg}
    322     ,                        !- Daily Wet-Bulb Temperature Range {deltaC}
    323     99063.,                  !- Barometric Pressure {Pa}
    324     5.3,                     !- Wind Speed {m/s}
    325     230,                     !- Wind Direction {deg}
    326     No,                      !- Rain Indicator
    327     No,                      !- Snow Indicator
    328     No,                      !- Daylight Saving Time Indicator
    329     ASHRAEClearSky,          !- Solar Model Indicator
    330     ,                        !- Beam Solar Day Schedule Name
    331     ,                        !- Diffuse Solar Day Schedule Name
    332     ,                        !- ASHRAE Clear Sky Optical Depth for Beam Irradiance (taub) {dimensionless}
    333     ,                        !- ASHRAE Clear Sky Optical Depth for Diffuse Irradiance (taud) {dimensionless}
    334     1.00;                    !- Sky Clearness
    335 
    336   Site:WaterMainsTemperature,
    337     CORRELATION,             !- Calculation Method
    338     ,                        !- Temperature Schedule Name
    339     9.69,                    !- Annual Average Outdoor Air Temperature {C}
    340     28.10;                   !- Maximum Difference In Monthly Average Outdoor Air Temperatures {deltaC}
    341 
    342   Site:GroundTemperature:BuildingSurface,19.527,19.502,19.536,19.598,20.002,21.640,22.225,22.375,21.449,20.121,19.802,19.633;
    343 
    344 ! ***OPAQUE CONSTRUCTIONS AND MATERIALS***
    345 ! Exterior Walls
    346 
    347   Construction,
    348     Mass Non-res Ext Wall,   !- Name
    349     1IN Stucco,              !- Outside Layer
    350     8IN Concrete HW,         !- Layer 2
    351     Mass NonRes Wall Insulation,  !- Layer 3
    352     1/2IN Gypsum;            !- Layer 4
    353 
    354   Material,
    355     Mass NonRes Wall Insulation,  !- Name
    356     MediumRough,             !- Roughness
    357     0.0495494599433393,      !- Thickness {m}
    358     0.049,                   !- Conductivity {W/m-K}
    359     265.0000,                !- Density {kg/m3}
    360     836.8000,                !- Specific Heat {J/kg-K}
    361     0.9000,                  !- Thermal Absorptance
    362     0.7000,                  !- Solar Absorptance
    363     0.7000;                  !- Visible Absorptance
    364 
    365 ! Roof
    366 
    367   Construction,
    368     IEAD Non-res Roof,       !- Name
    369     Roof Membrane,           !- Outside Layer
    370     IEAD NonRes Roof Insulation,  !- Layer 2
    371     Metal Decking;           !- Layer 3
    372 
    373   Material,
    374     IEAD NonRes Roof Insulation,  !- Name
    375     MediumRough,             !- Roughness
    376     0.127338688569477,       !- Thickness {m}
    377     0.049,                   !- Conductivity {W/m-K}
    378     265.0000,                !- Density {kg/m3}
    379     836.8000,                !- Specific Heat {J/kg-K}
    380     0.9000,                  !- Thermal Absorptance
    381     0.7000,                  !- Solar Absorptance
    382     0.7000;                  !- Visible Absorptance
    383 
    384 ! Slab on grade, unheated
    385 
    386   Construction,
    387     ext-slab,                !- Name
    388     HW CONCRETE;             !- Outside Layer
    389 
    390 ! Interior Walls
    391 
    392   Construction,
    393     int-walls,               !- Name
    394     1/2IN Gypsum,            !- Outside Layer
    395     1/2IN Gypsum;            !- Layer 2
    396 
    397 ! Interior Floors
    398 
    399   Construction,
    400     INT-FLOOR-TOPSIDE,       !- Name
    401     MAT-CC05 4 HW CONCRETE,  !- Outside Layer
    402     CP02 CARPET PAD;         !- Layer 2
    403 
    404   Construction,
    405     INT-FLOOR-UNDERSIDE,     !- Name
    406     CP02 CARPET PAD,         !- Outside Layer
    407     MAT-CC05 4 HW CONCRETE;  !- Layer 2
    408 
    409   Construction,
    410     Underground Wall Non-res,!- Name
    411     8IN Concrete HW,         !- Outside Layer
    412     UGWall NonRes Insulation;!- Layer 2
    413 
    414   Material,
    415     UGWall NonRes Insulation,!- Name
    416     MediumRough,             !- Roughness
    417     0.0001,                  !- Thickness {m}
    418     0.049,                   !- Conductivity {W/m-K}
    419     265.0000,                !- Density {kg/m3}
    420     836.8000,                !- Specific Heat {J/kg-K}
    421     0.9000,                  !- Thermal Absorptance
    422     0.7000,                  !- Solar Absorptance
    423     0.7000;                  !- Visible Absorptance
    424 
    425 ! ***WINDOW/DOOR CONSTRUCTIONS AND MATERIALS***
    426 
    427   Construction,
    428     Window Non-res Fixed,    !- Name
    429     NonRes Fixed Assembly Window;  !- Outside Layer
    430 
    431   WindowMaterial:SimpleGlazingSystem,
    432     NonRes Fixed Assembly Window,  !- Name
    433     3.23646,                 !- U-Factor {W/m2-K}
    434     0.39;                    !- Solar Heat Gain Coefficient
    435 
    436   Construction,
    437     Window Res Fixed,        !- Name
    438     Res Fixed Assembly Window;  !- Outside Layer
    439 
    440   WindowMaterial:SimpleGlazingSystem,
    441     Res Fixed Assembly Window,  !- Name
    442     3.23646,                 !- U-Factor {W/m2-K}
    443     0.39;                    !- Solar Heat Gain Coefficient
    444 
    445 ! ***COMMON CONSTRUCTIONS AND MATERIALS***
    446 
    447   Construction,
    448     DropCeiling,             !- Name
    449     Std AC02;                !- Outside Layer
    450 
    451   Construction,
    452     AIR-WALL,                !- Name
    453     MAT-AIR-WALL;            !- Outside Layer
    454 
    455   Construction,
    456     InteriorFurnishings,     !- Name
    457     Std Wood 6inch;          !- Outside Layer
    458 
    459   Material,
    460     Std Wood 6inch,          !- Name
    461     MediumSmooth,            !- Roughness
    462     0.15,                    !- Thickness {m}
    463     0.12,                    !- Conductivity {W/m-K}
    464     540.0000,                !- Density {kg/m3}
    465     1210,                    !- Specific Heat {J/kg-K}
    466     0.9000000,               !- Thermal Absorptance
    467     0.7000000,               !- Solar Absorptance
    468     0.7000000;               !- Visible Absorptance
    469 
    470   Material,
    471     Wood Siding,             !- Name
    472     MediumSmooth,            !- Roughness
    473     0.0100,                  !- Thickness {m}
    474     0.1100,                  !- Conductivity {W/m-K}
    475     544.6200,                !- Density {kg/m3}
    476     1210.0000,               !- Specific Heat {J/kg-K}
    477     0.9000,                  !- Thermal Absorptance
    478     0.7800,                  !- Solar Absorptance
    479     0.7800;                  !- Visible Absorptance
    480 
    481   Material,
    482     1/2IN Gypsum,            !- Name
    483     Smooth,                  !- Roughness
    484     0.0127,                  !- Thickness {m}
    485     0.1600,                  !- Conductivity {W/m-K}
    486     784.9000,                !- Density {kg/m3}
    487     830.0000,                !- Specific Heat {J/kg-K}
    488     0.9000,                  !- Thermal Absorptance
    489     0.9200,                  !- Solar Absorptance
    490     0.9200;                  !- Visible Absorptance
    491 
    492   Material,
    493     1IN Stucco,              !- Name
    494     Smooth,                  !- Roughness
    495     0.0253,                  !- Thickness {m}
    496     0.6918,                  !- Conductivity {W/m-K}
    497     1858.0000,               !- Density {kg/m3}
    498     837.0000,                !- Specific Heat {J/kg-K}
    499     0.9000,                  !- Thermal Absorptance
    500     0.9200,                  !- Solar Absorptance
    501     0.9200;                  !- Visible Absorptance
    502 
    503   Material,
    504     8IN CONCRETE HW,         !- Name
    505     Rough,                   !- Roughness
    506     0.2032,                  !- Thickness {m}
    507     1.3110,                  !- Conductivity {W/m-K}
    508     2240.0000,               !- Density {kg/m3}
    509     836.8000,                !- Specific Heat {J/kg-K}
    510     0.9000,                  !- Thermal Absorptance
    511     0.7000,                  !- Solar Absorptance
    512     0.7000;                  !- Visible Absorptance
    513 
    514   Material,
    515     Metal Siding,            !- Name
    516     Smooth,                  !- Roughness
    517     0.0015,                  !- Thickness {m}
    518     44.9600,                 !- Conductivity {W/m-K}
    519     7688.8600,               !- Density {kg/m3}
    520     410.0000,                !- Specific Heat {J/kg-K}
    521     0.9000,                  !- Thermal Absorptance
    522     0.2000,                  !- Solar Absorptance
    523     0.2000;                  !- Visible Absorptance
    524 
    525   Material,
    526     HW CONCRETE,             !- Name
    527     Rough,                   !- Roughness
    528     0.1016,                  !- Thickness {m}
    529     1.3110,                  !- Conductivity {W/m-K}
    530     2240.0000,               !- Density {kg/m3}
    531     836.8000,                !- Specific Heat {J/kg-K}
    532     0.9000,                  !- Thermal Absorptance
    533     0.7000,                  !- Solar Absorptance
    534     0.7000;                  !- Visible Absorptance
    535 
    536   Material:NoMass,
    537     CP02 CARPET PAD,         !- Name
    538     VeryRough,               !- Roughness
    539     0.2165,                  !- Thermal Resistance {m2-K/W}
    540     0.9000,                  !- Thermal Absorptance
    541     0.7000,                  !- Solar Absorptance
    542     0.8000;                  !- Visible Absorptance
    543 
    544   Material,
    545     Roof Membrane,           !- Name
    546     VeryRough,               !- Roughness
    547     0.0095,                  !- Thickness {m}
    548     0.1600,                  !- Conductivity {W/m-K}
    549     1121.2900,               !- Density {kg/m3}
    550     1460.0000,               !- Specific Heat {J/kg-K}
    551     0.9000,                  !- Thermal Absorptance
    552     0.7000,                  !- Solar Absorptance
    553     0.7000;                  !- Visible Absorptance
    554 
    555   Material,
    556     Metal Decking,           !- Name
    557     MediumSmooth,            !- Roughness
    558     0.0015,                  !- Thickness {m}
    559     45.0060,                 !- Conductivity {W/m-K}
    560     7680.0000,               !- Density {kg/m3}
    561     418.4000,                !- Specific Heat {J/kg-K}
    562     0.9000,                  !- Thermal Absorptance
    563     0.7000,                  !- Solar Absorptance
    564     0.3000;                  !- Visible Absorptance
    565 
    566   Material,
    567     Metal Roofing,           !- Name
    568     MediumSmooth,            !- Roughness
    569     0.0015,                  !- Thickness {m}
    570     45.0060,                 !- Conductivity {W/m-K}
    571     7680.0000,               !- Density {kg/m3}
    572     418.4000,                !- Specific Heat {J/kg-K}
    573     0.9000,                  !- Thermal Absorptance
    574     0.7000,                  !- Solar Absorptance
    575     0.3000;                  !- Visible Absorptance
    576 
    577   Material,
    578     MAT-CC05 4 HW CONCRETE,  !- Name
    579     Rough,                   !- Roughness
    580     0.1016,                  !- Thickness {m}
    581     1.3110,                  !- Conductivity {W/m-K}
    582     2240.0000,               !- Density {kg/m3}
    583     836.8000,                !- Specific Heat {J/kg-K}
    584     0.9000,                  !- Thermal Absorptance
    585     0.7000,                  !- Solar Absorptance
    586     0.7000;                  !- Visible Absorptance
    587 
    588 ! Acoustic tile for drop ceiling
    589 
    590   Material,
    591     Std AC02,                !- Name
    592     MediumSmooth,            !- Roughness
    593     1.2700000E-02,           !- Thickness {m}
    594     5.7000000E-02,           !- Conductivity {W/m-K}
    595     288.0000,                !- Density {kg/m3}
    596     1339.000,                !- Specific Heat {J/kg-K}
    597     0.9000000,               !- Thermal Absorptance
    598     0.7000000,               !- Solar Absorptance
    599     0.2000000;               !- Visible Absorptance
    600 
    601   Material:NoMass,
    602     MAT-AIR-WALL,            !- Name
    603     Rough,                   !- Roughness
    604     0.2079491,               !- Thermal Resistance {m2-K/W}
    605     0.9,                     !- Thermal Absorptance
    606     0.7;                     !- Solar Absorptance
    607 
    608 ! ZONE LIST:
    609 ! Basement
    610 ! Corridor_Flr_1
    611 ! Corridor_Flr_2
    612 ! Corridor_Flr_5
    613 ! Corridor_NW_Flr_3
    614 ! Corridor_NW_Flr_4
    615 ! Corridor_SE_Flr_3
    616 ! Corridor_SE_Flr_4
    617 ! Dining_Flr_5
    618 ! ER_Exam1_Mult4_Flr_1
    619 ! ER_Exam3_Mult4_Flr_1
    620 ! ER_NurseStn_Lobby_Flr_1
    621 ! ER_Trauma1_Flr_1
    622 ! ER_Trauma2_Flr_1
    623 ! ER_Triage_Mult4_Flr_1
    624 ! ICU_Flr_2
    625 ! ICU_NurseStn_Lobby_Flr_2
    626 ! IC_PatRoom1_Mult5_Flr_2
    627 ! IC_PatRoom2_Flr_2
    628 ! IC_PatRoom3_Mult6_Flr_2
    629 ! Kitchen_Flr_5
    630 ! Lab_Flr_3
    631 ! Lab_Flr_4
    632 ! Lobby_Records_Flr_1
    633 ! NurseStn_Lobby_Flr_3
    634 ! NurseStn_Lobby_Flr_4
    635 ! NurseStn_Lobby_Flr_5
    636 ! OR1_Flr_2
    637 ! OR2_Mult5_Flr_2
    638 ! OR3_Flr_2
    639 ! OR4_Flr_2
    640 ! OR_NurseStn_Lobby_Flr_2
    641 ! Office1_Flr_5
    642 ! Office1_Mult4_Flr_1
    643 ! Office2_Mult5_Flr_5
    644 ! Office3_Flr_5
    645 ! Office4_Mult6_Flr_5
    646 ! PatRoom1_Mult10_Flr_3
    647 ! PatRoom1_Mult10_Flr_4
    648 ! PatRoom2_Flr_3
    649 ! PatRoom2_Flr_4
    650 ! PatRoom3_Mult10_Flr_3
    651 ! PatRoom3_Mult10_Flr_4
    652 ! PatRoom4_Flr_3
    653 ! PatRoom4_Flr_4
    654 ! PatRoom5_Mult10_Flr_3
    655 ! PatRoom5_Mult10_Flr_4
    656 ! PatRoom6_Flr_3
    657 ! PatRoom6_Flr_4
    658 ! PatRoom7_Mult10_Flr_3
    659 ! PatRoom7_Mult10_Flr_4
    660 ! PatRoom8_Flr_3
    661 ! PatRoom8_Flr_4
    662 ! PhysTherapy_Flr_3
    663 ! Radiology_Flr_4
    664 ! ***ZONES***
    665 
    666   Zone,
    667     Basement,                !- Name
    668     0.0000,                  !- Direction of Relative North {deg}
    669     0.0000,                  !- X Origin {m}
    670     0.0000,                  !- Y Origin {m}
    671     0.0000,                  !- Z Origin {m}
    672     1,                       !- Type
    673     1,                       !- Multiplier
    674     ,                        !- Ceiling Height {m}
    675     ,                        !- Volume {m3}
    676     autocalculate,           !- Floor Area {m2}
    677     ,                        !- Zone Inside Convection Algorithm
    678     ,                        !- Zone Outside Convection Algorithm
    679     Yes;                     !- Part of Total Floor Area
    680 
    681   Zone,
    682     Corridor_Flr_1,          !- Name
    683     0.0000,                  !- Direction of Relative North {deg}
    684     0.0000,                  !- X Origin {m}
    685     0.0000,                  !- Y Origin {m}
    686     0.0000,                  !- Z Origin {m}
    687     1,                       !- Type
    688     1,                       !- Multiplier
    689     ,                        !- Ceiling Height {m}
    690     ,                        !- Volume {m3}
    691     autocalculate,           !- Floor Area {m2}
    692     ,                        !- Zone Inside Convection Algorithm
    693     ,                        !- Zone Outside Convection Algorithm
    694     Yes;                     !- Part of Total Floor Area
    695 
    696   Zone,
    697     Corridor_Flr_2,          !- Name
    698     0.0000,                  !- Direction of Relative North {deg}
    699     0.0000,                  !- X Origin {m}
    700     0.0000,                  !- Y Origin {m}
    701     0.0000,                  !- Z Origin {m}
    702     1,                       !- Type
    703     1,                       !- Multiplier
    704     ,                        !- Ceiling Height {m}
    705     ,                        !- Volume {m3}
    706     autocalculate,           !- Floor Area {m2}
    707     ,                        !- Zone Inside Convection Algorithm
    708     ,                        !- Zone Outside Convection Algorithm
    709     Yes;                     !- Part of Total Floor Area
    710 
    711   Zone,
    712     Corridor_Flr_5,          !- Name
    713     0.0000,                  !- Direction of Relative North {deg}
    714     0.0000,                  !- X Origin {m}
    715     0.0000,                  !- Y Origin {m}
    716     0.0000,                  !- Z Origin {m}
    717     1,                       !- Type
    718     1,                       !- Multiplier
    719     ,                        !- Ceiling Height {m}
    720     ,                        !- Volume {m3}
    721     autocalculate,           !- Floor Area {m2}
    722     ,                        !- Zone Inside Convection Algorithm
    723     ,                        !- Zone Outside Convection Algorithm
    724     Yes;                     !- Part of Total Floor Area
    725 
    726   Zone,
    727     Corridor_NW_Flr_3,       !- Name
    728     0.0000,                  !- Direction of Relative North {deg}
    729     0.0000,                  !- X Origin {m}
    730     0.0000,                  !- Y Origin {m}
    731     0.0000,                  !- Z Origin {m}
    732     1,                       !- Type
    733     1,                       !- Multiplier
    734     ,                        !- Ceiling Height {m}
    735     ,                        !- Volume {m3}
    736     autocalculate,           !- Floor Area {m2}
    737     ,                        !- Zone Inside Convection Algorithm
    738     ,                        !- Zone Outside Convection Algorithm
    739     Yes;                     !- Part of Total Floor Area
    740 
    741   Zone,
    742     Corridor_NW_Flr_4,       !- Name
    743     0.0000,                  !- Direction of Relative North {deg}
    744     0.0000,                  !- X Origin {m}
    745     0.0000,                  !- Y Origin {m}
    746     0.0000,                  !- Z Origin {m}
    747     1,                       !- Type
    748     1,                       !- Multiplier
    749     ,                        !- Ceiling Height {m}
    750     ,                        !- Volume {m3}
    751     autocalculate,           !- Floor Area {m2}
    752     ,                        !- Zone Inside Convection Algorithm
    753     ,                        !- Zone Outside Convection Algorithm
    754     Yes;                     !- Part of Total Floor Area
    755 
    756   Zone,
    757     Corridor_SE_Flr_3,       !- Name
    758     0.0000,                  !- Direction of Relative North {deg}
    759     0.0000,                  !- X Origin {m}
    760     0.0000,                  !- Y Origin {m}
    761     0.0000,                  !- Z Origin {m}
    762     1,                       !- Type
    763     1,                       !- Multiplier
    764     ,                        !- Ceiling Height {m}
    765     ,                        !- Volume {m3}
    766     autocalculate,           !- Floor Area {m2}
    767     ,                        !- Zone Inside Convection Algorithm
    768     ,                        !- Zone Outside Convection Algorithm
    769     Yes;                     !- Part of Total Floor Area
    770 
    771   Zone,
    772     Corridor_SE_Flr_4,       !- Name
    773     0.0000,                  !- Direction of Relative North {deg}
    774     0.0000,                  !- X Origin {m}
    775     0.0000,                  !- Y Origin {m}
    776     0.0000,                  !- Z Origin {m}
    777     1,                       !- Type
    778     1,                       !- Multiplier
    779     ,                        !- Ceiling Height {m}
    780     ,                        !- Volume {m3}
    781     autocalculate,           !- Floor Area {m2}
    782     ,                        !- Zone Inside Convection Algorithm
    783     ,                        !- Zone Outside Convection Algorithm
    784     Yes;                     !- Part of Total Floor Area
    785 
    786   Zone,
    787     Dining_Flr_5,            !- Name
    788     0.0000,                  !- Direction of Relative North {deg}
    789     0.0000,                  !- X Origin {m}
    790     0.0000,                  !- Y Origin {m}
    791     0.0000,                  !- Z Origin {m}
    792     1,                       !- Type
    793     1,                       !- Multiplier
    794     ,                        !- Ceiling Height {m}
    795     ,                        !- Volume {m3}
    796     autocalculate,           !- Floor Area {m2}
    797     ,                        !- Zone Inside Convection Algorithm
    798     ,                        !- Zone Outside Convection Algorithm
    799     Yes;                     !- Part of Total Floor Area
    800 
    801   Zone,
    802     ER_Exam1_Mult4_Flr_1,    !- Name
    803     0.0000,                  !- Direction of Relative North {deg}
    804     0.0000,                  !- X Origin {m}
    805     0.0000,                  !- Y Origin {m}
    806     0.0000,                  !- Z Origin {m}
    807     1,                       !- Type
    808     4,                       !- Multiplier
    809     ,                        !- Ceiling Height {m}
    810     ,                        !- Volume {m3}
    811     autocalculate,           !- Floor Area {m2}
    812     ,                        !- Zone Inside Convection Algorithm
    813     ,                        !- Zone Outside Convection Algorithm
    814     Yes;                     !- Part of Total Floor Area
    815 
    816   Zone,
    817     ER_Exam3_Mult4_Flr_1,    !- Name
    818     0.0000,                  !- Direction of Relative North {deg}
    819     0.0000,                  !- X Origin {m}
    820     0.0000,                  !- Y Origin {m}
    821     0.0000,                  !- Z Origin {m}
    822     1,                       !- Type
    823     4,                       !- Multiplier
    824     ,                        !- Ceiling Height {m}
    825     ,                        !- Volume {m3}
    826     autocalculate,           !- Floor Area {m2}
    827     ,                        !- Zone Inside Convection Algorithm
    828     ,                        !- Zone Outside Convection Algorithm
    829     Yes;                     !- Part of Total Floor Area
    830 
    831   Zone,
    832     ER_NurseStn_Lobby_Flr_1, !- Name
    833     0.0000,                  !- Direction of Relative North {deg}
    834     0.0000,                  !- X Origin {m}
    835     0.0000,                  !- Y Origin {m}
    836     0.0000,                  !- Z Origin {m}
    837     1,                       !- Type
    838     1,                       !- Multiplier
    839     ,                        !- Ceiling Height {m}
    840     ,                        !- Volume {m3}
    841     autocalculate,           !- Floor Area {m2}
    842     ,                        !- Zone Inside Convection Algorithm
    843     ,                        !- Zone Outside Convection Algorithm
    844     Yes;                     !- Part of Total Floor Area
    845 
    846   Zone,
    847     ER_Trauma1_Flr_1,        !- Name
    848     0.0000,                  !- Direction of Relative North {deg}
    849     0.0000,                  !- X Origin {m}
    850     0.0000,                  !- Y Origin {m}
    851     0.0000,                  !- Z Origin {m}
    852     1,                       !- Type
    853     1,                       !- Multiplier
    854     ,                        !- Ceiling Height {m}
    855     ,                        !- Volume {m3}
    856     autocalculate,           !- Floor Area {m2}
    857     ,                        !- Zone Inside Convection Algorithm
    858     ,                        !- Zone Outside Convection Algorithm
    859     Yes;                     !- Part of Total Floor Area
    860 
    861   Zone,
    862     ER_Trauma2_Flr_1,        !- Name
    863     0.0000,                  !- Direction of Relative North {deg}
    864     0.0000,                  !- X Origin {m}
    865     0.0000,                  !- Y Origin {m}
    866     0.0000,                  !- Z Origin {m}
    867     1,                       !- Type
    868     1,                       !- Multiplier
    869     ,                        !- Ceiling Height {m}
    870     ,                        !- Volume {m3}
    871     autocalculate,           !- Floor Area {m2}
    872     ,                        !- Zone Inside Convection Algorithm
    873     ,                        !- Zone Outside Convection Algorithm
    874     Yes;                     !- Part of Total Floor Area
    875 
    876   Zone,
    877     ER_Triage_Mult4_Flr_1,   !- Name
    878     0.0000,                  !- Direction of Relative North {deg}
    879     0.0000,                  !- X Origin {m}
    880     0.0000,                  !- Y Origin {m}
    881     0.0000,                  !- Z Origin {m}
    882     1,                       !- Type
    883     4,                       !- Multiplier
    884     ,                        !- Ceiling Height {m}
    885     ,                        !- Volume {m3}
    886     autocalculate,           !- Floor Area {m2}
    887     ,                        !- Zone Inside Convection Algorithm
    888     ,                        !- Zone Outside Convection Algorithm
    889     Yes;                     !- Part of Total Floor Area
    890 
    891   Zone,
    892     ICU_Flr_2,               !- Name
    893     0.0000,                  !- Direction of Relative North {deg}
    894     0.0000,                  !- X Origin {m}
    895     0.0000,                  !- Y Origin {m}
    896     0.0000,                  !- Z Origin {m}
    897     1,                       !- Type
    898     1,                       !- Multiplier
    899     ,                        !- Ceiling Height {m}
    900     ,                        !- Volume {m3}
    901     autocalculate,           !- Floor Area {m2}
    902     ,                        !- Zone Inside Convection Algorithm
    903     ,                        !- Zone Outside Convection Algorithm
    904     Yes;                     !- Part of Total Floor Area
    905 
    906   Zone,
    907     ICU_NurseStn_Lobby_Flr_2,!- Name
    908     0.0000,                  !- Direction of Relative North {deg}
    909     0.0000,                  !- X Origin {m}
    910     0.0000,                  !- Y Origin {m}
    911     0.0000,                  !- Z Origin {m}
    912     1,                       !- Type
    913     1,                       !- Multiplier
    914     ,                        !- Ceiling Height {m}
    915     ,                        !- Volume {m3}
    916     autocalculate,           !- Floor Area {m2}
    917     ,                        !- Zone Inside Convection Algorithm
    918     ,                        !- Zone Outside Convection Algorithm
    919     Yes;                     !- Part of Total Floor Area
    920 
    921   Zone,
    922     IC_PatRoom1_Mult5_Flr_2, !- Name
    923     0.0000,                  !- Direction of Relative North {deg}
    924     0.0000,                  !- X Origin {m}
    925     0.0000,                  !- Y Origin {m}
    926     0.0000,                  !- Z Origin {m}
    927     1,                       !- Type
    928     5,                       !- Multiplier
    929     ,                        !- Ceiling Height {m}
    930     ,                        !- Volume {m3}
    931     autocalculate,           !- Floor Area {m2}
    932     ,                        !- Zone Inside Convection Algorithm
    933     ,                        !- Zone Outside Convection Algorithm
    934     Yes;                     !- Part of Total Floor Area
    935 
    936   Zone,
    937     IC_PatRoom2_Flr_2,       !- Name
    938     0.0000,                  !- Direction of Relative North {deg}
    939     0.0000,                  !- X Origin {m}
    940     0.0000,                  !- Y Origin {m}
    941     0.0000,                  !- Z Origin {m}
    942     1,                       !- Type
    943     1,                       !- Multiplier
    944     ,                        !- Ceiling Height {m}
    945     ,                        !- Volume {m3}
    946     autocalculate,           !- Floor Area {m2}
    947     ,                        !- Zone Inside Convection Algorithm
    948     ,                        !- Zone Outside Convection Algorithm
    949     Yes;                     !- Part of Total Floor Area
    950 
    951   Zone,
    952     IC_PatRoom3_Mult6_Flr_2, !- Name
    953     0.0000,                  !- Direction of Relative North {deg}
    954     0.0000,                  !- X Origin {m}
    955     0.0000,                  !- Y Origin {m}
    956     0.0000,                  !- Z Origin {m}
    957     1,                       !- Type
    958     6,                       !- Multiplier
    959     ,                        !- Ceiling Height {m}
    960     ,                        !- Volume {m3}
    961     autocalculate,           !- Floor Area {m2}
    962     ,                        !- Zone Inside Convection Algorithm
    963     ,                        !- Zone Outside Convection Algorithm
    964     Yes;                     !- Part of Total Floor Area
    965 
    966   Zone,
    967     Kitchen_Flr_5,           !- Name
    968     0.0000,                  !- Direction of Relative North {deg}
    969     0.0000,                  !- X Origin {m}
    970     0.0000,                  !- Y Origin {m}
    971     0.0000,                  !- Z Origin {m}
    972     1,                       !- Type
    973     1,                       !- Multiplier
    974     ,                        !- Ceiling Height {m}
    975     ,                        !- Volume {m3}
    976     autocalculate,           !- Floor Area {m2}
    977     ,                        !- Zone Inside Convection Algorithm
    978     ,                        !- Zone Outside Convection Algorithm
    979     Yes;                     !- Part of Total Floor Area
    980 
    981   Zone,
    982     Lab_Flr_3,               !- Name
    983     0.0000,                  !- Direction of Relative North {deg}
    984     0.0000,                  !- X Origin {m}
    985     0.0000,                  !- Y Origin {m}
    986     0.0000,                  !- Z Origin {m}
    987     1,                       !- Type
    988     1,                       !- Multiplier
    989     ,                        !- Ceiling Height {m}
    990     ,                        !- Volume {m3}
    991     autocalculate,           !- Floor Area {m2}
    992     ,                        !- Zone Inside Convection Algorithm
    993     ,                        !- Zone Outside Convection Algorithm
    994     Yes;                     !- Part of Total Floor Area
    995 
    996   Zone,
    997     Lab_Flr_4,               !- Name
    998     0.0000,                  !- Direction of Relative North {deg}
    999     0.0000,                  !- X Origin {m}
   1000     0.0000,                  !- Y Origin {m}
   1001     0.0000,                  !- Z Origin {m}
   1002     1,                       !- Type
   1003     1,                       !- Multiplier
   1004     ,                        !- Ceiling Height {m}
   1005     ,                        !- Volume {m3}
   1006     autocalculate,           !- Floor Area {m2}
   1007     ,                        !- Zone Inside Convection Algorithm
   1008     ,                        !- Zone Outside Convection Algorithm
   1009     Yes;                     !- Part of Total Floor Area
   1010 
   1011   Zone,
   1012     Lobby_Records_Flr_1,     !- Name
   1013     0.0000,                  !- Direction of Relative North {deg}
   1014     0.0000,                  !- X Origin {m}
   1015     0.0000,                  !- Y Origin {m}
   1016     0.0000,                  !- Z Origin {m}
   1017     1,                       !- Type
   1018     1,                       !- Multiplier
   1019     ,                        !- Ceiling Height {m}
   1020     ,                        !- Volume {m3}
   1021     autocalculate,           !- Floor Area {m2}
   1022     ,                        !- Zone Inside Convection Algorithm
   1023     ,                        !- Zone Outside Convection Algorithm
   1024     Yes;                     !- Part of Total Floor Area
   1025 
   1026   Zone,
   1027     NurseStn_Lobby_Flr_3,    !- Name
   1028     0.0000,                  !- Direction of Relative North {deg}
   1029     0.0000,                  !- X Origin {m}
   1030     0.0000,                  !- Y Origin {m}
   1031     0.0000,                  !- Z Origin {m}
   1032     1,                       !- Type
   1033     1,                       !- Multiplier
   1034     ,                        !- Ceiling Height {m}
   1035     ,                        !- Volume {m3}
   1036     autocalculate,           !- Floor Area {m2}
   1037     ,                        !- Zone Inside Convection Algorithm
   1038     ,                        !- Zone Outside Convection Algorithm
   1039     Yes;                     !- Part of Total Floor Area
   1040 
   1041   Zone,
   1042     NurseStn_Lobby_Flr_4,    !- Name
   1043     0.0000,                  !- Direction of Relative North {deg}
   1044     0.0000,                  !- X Origin {m}
   1045     0.0000,                  !- Y Origin {m}
   1046     0.0000,                  !- Z Origin {m}
   1047     1,                       !- Type
   1048     1,                       !- Multiplier
   1049     ,                        !- Ceiling Height {m}
   1050     ,                        !- Volume {m3}
   1051     autocalculate,           !- Floor Area {m2}
   1052     ,                        !- Zone Inside Convection Algorithm
   1053     ,                        !- Zone Outside Convection Algorithm
   1054     Yes;                     !- Part of Total Floor Area
   1055 
   1056   Zone,
   1057     NurseStn_Lobby_Flr_5,    !- Name
   1058     0.0000,                  !- Direction of Relative North {deg}
   1059     0.0000,                  !- X Origin {m}
   1060     0.0000,                  !- Y Origin {m}
   1061     0.0000,                  !- Z Origin {m}
   1062     1,                       !- Type
   1063     1,                       !- Multiplier
   1064     ,                        !- Ceiling Height {m}
   1065     ,                        !- Volume {m3}
   1066     autocalculate,           !- Floor Area {m2}
   1067     ,                        !- Zone Inside Convection Algorithm
   1068     ,                        !- Zone Outside Convection Algorithm
   1069     Yes;                     !- Part of Total Floor Area
   1070 
   1071   Zone,
   1072     OR1_Flr_2,               !- Name
   1073     0.0000,                  !- Direction of Relative North {deg}
   1074     0.0000,                  !- X Origin {m}
   1075     0.0000,                  !- Y Origin {m}
   1076     0.0000,                  !- Z Origin {m}
   1077     1,                       !- Type
   1078     1,                       !- Multiplier
   1079     ,                        !- Ceiling Height {m}
   1080     ,                        !- Volume {m3}
   1081     autocalculate,           !- Floor Area {m2}
   1082     ,                        !- Zone Inside Convection Algorithm
   1083     ,                        !- Zone Outside Convection Algorithm
   1084     Yes;                     !- Part of Total Floor Area
   1085 
   1086   Zone,
   1087     OR2_Mult5_Flr_2,         !- Name
   1088     0.0000,                  !- Direction of Relative North {deg}
   1089     0.0000,                  !- X Origin {m}
   1090     0.0000,                  !- Y Origin {m}
   1091     0.0000,                  !- Z Origin {m}
   1092     1,                       !- Type
   1093     5,                       !- Multiplier
   1094     ,                        !- Ceiling Height {m}
   1095     ,                        !- Volume {m3}
   1096     autocalculate,           !- Floor Area {m2}
   1097     ,                        !- Zone Inside Convection Algorithm
   1098     ,                        !- Zone Outside Convection Algorithm
   1099     Yes;                     !- Part of Total Floor Area
   1100 
   1101   Zone,
   1102     OR3_Flr_2,               !- Name
   1103     0.0000,                  !- Direction of Relative North {deg}
   1104     0.0000,                  !- X Origin {m}
   1105     0.0000,                  !- Y Origin {m}
   1106     0.0000,                  !- Z Origin {m}
   1107     1,                       !- Type
   1108     1,                       !- Multiplier
   1109     ,                        !- Ceiling Height {m}
   1110     ,                        !- Volume {m3}
   1111     autocalculate,           !- Floor Area {m2}
   1112     ,                        !- Zone Inside Convection Algorithm
   1113     ,                        !- Zone Outside Convection Algorithm
   1114     Yes;                     !- Part of Total Floor Area
   1115 
   1116   Zone,
   1117     OR4_Flr_2,               !- Name
   1118     0.0000,                  !- Direction of Relative North {deg}
   1119     0.0000,                  !- X Origin {m}
   1120     0.0000,                  !- Y Origin {m}
   1121     0.0000,                  !- Z Origin {m}
   1122     1,                       !- Type
   1123     1,                       !- Multiplier
   1124     ,                        !- Ceiling Height {m}
   1125     ,                        !- Volume {m3}
   1126     autocalculate,           !- Floor Area {m2}
   1127     ,                        !- Zone Inside Convection Algorithm
   1128     ,                        !- Zone Outside Convection Algorithm
   1129     Yes;                     !- Part of Total Floor Area
   1130 
   1131   Zone,
   1132     OR_NurseStn_Lobby_Flr_2, !- Name
   1133     0.0000,                  !- Direction of Relative North {deg}
   1134     0.0000,                  !- X Origin {m}
   1135     0.0000,                  !- Y Origin {m}
   1136     0.0000,                  !- Z Origin {m}
   1137     1,                       !- Type
   1138     1,                       !- Multiplier
   1139     ,                        !- Ceiling Height {m}
   1140     ,                        !- Volume {m3}
   1141     autocalculate,           !- Floor Area {m2}
   1142     ,                        !- Zone Inside Convection Algorithm
   1143     ,                        !- Zone Outside Convection Algorithm
   1144     Yes;                     !- Part of Total Floor Area
   1145 
   1146   Zone,
   1147     Office1_Flr_5,           !- Name
   1148     0.0000,                  !- Direction of Relative North {deg}
   1149     0.0000,                  !- X Origin {m}
   1150     0.0000,                  !- Y Origin {m}
   1151     0.0000,                  !- Z Origin {m}
   1152     1,                       !- Type
   1153     1,                       !- Multiplier
   1154     ,                        !- Ceiling Height {m}
   1155     ,                        !- Volume {m3}
   1156     autocalculate,           !- Floor Area {m2}
   1157     ,                        !- Zone Inside Convection Algorithm
   1158     ,                        !- Zone Outside Convection Algorithm
   1159     Yes;                     !- Part of Total Floor Area
   1160 
   1161   Zone,
   1162     Office1_Mult4_Flr_1,     !- Name
   1163     0.0000,                  !- Direction of Relative North {deg}
   1164     0.0000,                  !- X Origin {m}
   1165     0.0000,                  !- Y Origin {m}
   1166     0.0000,                  !- Z Origin {m}
   1167     1,                       !- Type
   1168     4,                       !- Multiplier
   1169     ,                        !- Ceiling Height {m}
   1170     ,                        !- Volume {m3}
   1171     autocalculate,           !- Floor Area {m2}
   1172     ,                        !- Zone Inside Convection Algorithm
   1173     ,                        !- Zone Outside Convection Algorithm
   1174     Yes;                     !- Part of Total Floor Area
   1175 
   1176   Zone,
   1177     Office2_Mult5_Flr_5,     !- Name
   1178     0.0000,                  !- Direction of Relative North {deg}
   1179     0.0000,                  !- X Origin {m}
   1180     0.0000,                  !- Y Origin {m}
   1181     0.0000,                  !- Z Origin {m}
   1182     1,                       !- Type
   1183     5,                       !- Multiplier
   1184     ,                        !- Ceiling Height {m}
   1185     ,                        !- Volume {m3}
   1186     autocalculate,           !- Floor Area {m2}
   1187     ,                        !- Zone Inside Convection Algorithm
   1188     ,                        !- Zone Outside Convection Algorithm
   1189     Yes;                     !- Part of Total Floor Area
   1190 
   1191   Zone,
   1192     Office3_Flr_5,           !- Name
   1193     0.0000,                  !- Direction of Relative North {deg}
   1194     0.0000,                  !- X Origin {m}
   1195     0.0000,                  !- Y Origin {m}
   1196     0.0000,                  !- Z Origin {m}
   1197     1,                       !- Type
   1198     1,                       !- Multiplier
   1199     ,                        !- Ceiling Height {m}
   1200     ,                        !- Volume {m3}
   1201     autocalculate,           !- Floor Area {m2}
   1202     ,                        !- Zone Inside Convection Algorithm
   1203     ,                        !- Zone Outside Convection Algorithm
   1204     Yes;                     !- Part of Total Floor Area
   1205 
   1206   Zone,
   1207     Office4_Mult6_Flr_5,     !- Name
   1208     0.0000,                  !- Direction of Relative North {deg}
   1209     0.0000,                  !- X Origin {m}
   1210     0.0000,                  !- Y Origin {m}
   1211     0.0000,                  !- Z Origin {m}
   1212     1,                       !- Type
   1213     6,                       !- Multiplier
   1214     ,                        !- Ceiling Height {m}
   1215     ,                        !- Volume {m3}
   1216     autocalculate,           !- Floor Area {m2}
   1217     ,                        !- Zone Inside Convection Algorithm
   1218     ,                        !- Zone Outside Convection Algorithm
   1219     Yes;                     !- Part of Total Floor Area
   1220 
   1221   Zone,
   1222     PatRoom1_Mult10_Flr_3,   !- Name
   1223     0.0000,                  !- Direction of Relative North {deg}
   1224     0.0000,                  !- X Origin {m}
   1225     0.0000,                  !- Y Origin {m}
   1226     0.0000,                  !- Z Origin {m}
   1227     1,                       !- Type
   1228     10,                      !- Multiplier
   1229     ,                        !- Ceiling Height {m}
   1230     ,                        !- Volume {m3}
   1231     autocalculate,           !- Floor Area {m2}
   1232     ,                        !- Zone Inside Convection Algorithm
   1233     ,                        !- Zone Outside Convection Algorithm
   1234     Yes;                     !- Part of Total Floor Area
   1235 
   1236   Zone,
   1237     PatRoom1_Mult10_Flr_4,   !- Name
   1238     0.0000,                  !- Direction of Relative North {deg}
   1239     0.0000,                  !- X Origin {m}
   1240     0.0000,                  !- Y Origin {m}
   1241     0.0000,                  !- Z Origin {m}
   1242     1,                       !- Type
   1243     10,                      !- Multiplier
   1244     ,                        !- Ceiling Height {m}
   1245     ,                        !- Volume {m3}
   1246     autocalculate,           !- Floor Area {m2}
   1247     ,                        !- Zone Inside Convection Algorithm
   1248     ,                        !- Zone Outside Convection Algorithm
   1249     Yes;                     !- Part of Total Floor Area
   1250 
   1251   Zone,
   1252     PatRoom2_Flr_3,          !- Name
   1253     0.0000,                  !- Direction of Relative North {deg}
   1254     0.0000,                  !- X Origin {m}
   1255     0.0000,                  !- Y Origin {m}
   1256     0.0000,                  !- Z Origin {m}
   1257     1,                       !- Type
   1258     1,                       !- Multiplier
   1259     ,                        !- Ceiling Height {m}
   1260     ,                        !- Volume {m3}
   1261     autocalculate,           !- Floor Area {m2}
   1262     ,                        !- Zone Inside Convection Algorithm
   1263     ,                        !- Zone Outside Convection Algorithm
   1264     Yes;                     !- Part of Total Floor Area
   1265 
   1266   Zone,
   1267     PatRoom2_Flr_4,          !- Name
   1268     0.0000,                  !- Direction of Relative North {deg}
   1269     0.0000,                  !- X Origin {m}
   1270     0.0000,                  !- Y Origin {m}
   1271     0.0000,                  !- Z Origin {m}
   1272     1,                       !- Type
   1273     1,                       !- Multiplier
   1274     ,                        !- Ceiling Height {m}
   1275     ,                        !- Volume {m3}
   1276     autocalculate,           !- Floor Area {m2}
   1277     ,                        !- Zone Inside Convection Algorithm
   1278     ,                        !- Zone Outside Convection Algorithm
   1279     Yes;                     !- Part of Total Floor Area
   1280 
   1281   Zone,
   1282     PatRoom3_Mult10_Flr_3,   !- Name
   1283     0.0000,                  !- Direction of Relative North {deg}
   1284     0.0000,                  !- X Origin {m}
   1285     0.0000,                  !- Y Origin {m}
   1286     0.0000,                  !- Z Origin {m}
   1287     1,                       !- Type
   1288     10,                      !- Multiplier
   1289     ,                        !- Ceiling Height {m}
   1290     ,                        !- Volume {m3}
   1291     autocalculate,           !- Floor Area {m2}
   1292     ,                        !- Zone Inside Convection Algorithm
   1293     ,                        !- Zone Outside Convection Algorithm
   1294     Yes;                     !- Part of Total Floor Area
   1295 
   1296   Zone,
   1297     PatRoom3_Mult10_Flr_4,   !- Name
   1298     0.0000,                  !- Direction of Relative North {deg}
   1299     0.0000,                  !- X Origin {m}
   1300     0.0000,                  !- Y Origin {m}
   1301     0.0000,                  !- Z Origin {m}
   1302     1,                       !- Type
   1303     10,                      !- Multiplier
   1304     ,                        !- Ceiling Height {m}
   1305     ,                        !- Volume {m3}
   1306     autocalculate,           !- Floor Area {m2}
   1307     ,                        !- Zone Inside Convection Algorithm
   1308     ,                        !- Zone Outside Convection Algorithm
   1309     Yes;                     !- Part of Total Floor Area
   1310 
   1311   Zone,
   1312     PatRoom4_Flr_3,          !- Name
   1313     0.0000,                  !- Direction of Relative North {deg}
   1314     0.0000,                  !- X Origin {m}
   1315     0.0000,                  !- Y Origin {m}
   1316     0.0000,                  !- Z Origin {m}
   1317     1,                       !- Type
   1318     1,                       !- Multiplier
   1319     ,                        !- Ceiling Height {m}
   1320     ,                        !- Volume {m3}
   1321     autocalculate,           !- Floor Area {m2}
   1322     ,                        !- Zone Inside Convection Algorithm
   1323     ,                        !- Zone Outside Convection Algorithm
   1324     Yes;                     !- Part of Total Floor Area
   1325 
   1326   Zone,
   1327     PatRoom4_Flr_4,          !- Name
   1328     0.0000,                  !- Direction of Relative North {deg}
   1329     0.0000,                  !- X Origin {m}
   1330     0.0000,                  !- Y Origin {m}
   1331     0.0000,                  !- Z Origin {m}
   1332     1,                       !- Type
   1333     1,                       !- Multiplier
   1334     ,                        !- Ceiling Height {m}
   1335     ,                        !- Volume {m3}
   1336     autocalculate,           !- Floor Area {m2}
   1337     ,                        !- Zone Inside Convection Algorithm
   1338     ,                        !- Zone Outside Convection Algorithm
   1339     Yes;                     !- Part of Total Floor Area
   1340 
   1341   Zone,
   1342     PatRoom5_Mult10_Flr_3,   !- Name
   1343     0.0000,                  !- Direction of Relative North {deg}
   1344     0.0000,                  !- X Origin {m}
   1345     0.0000,                  !- Y Origin {m}
   1346     0.0000,                  !- Z Origin {m}
   1347     1,                       !- Type
   1348     10,                      !- Multiplier
   1349     ,                        !- Ceiling Height {m}
   1350     ,                        !- Volume {m3}
   1351     autocalculate,           !- Floor Area {m2}
   1352     ,                        !- Zone Inside Convection Algorithm
   1353     ,                        !- Zone Outside Convection Algorithm
   1354     Yes;                     !- Part of Total Floor Area
   1355 
   1356   Zone,
   1357     PatRoom5_Mult10_Flr_4,   !- Name
   1358     0.0000,                  !- Direction of Relative North {deg}
   1359     0.0000,                  !- X Origin {m}
   1360     0.0000,                  !- Y Origin {m}
   1361     0.0000,                  !- Z Origin {m}
   1362     1,                       !- Type
   1363     10,                      !- Multiplier
   1364     ,                        !- Ceiling Height {m}
   1365     ,                        !- Volume {m3}
   1366     autocalculate,           !- Floor Area {m2}
   1367     ,                        !- Zone Inside Convection Algorithm
   1368     ,                        !- Zone Outside Convection Algorithm
   1369     Yes;                     !- Part of Total Floor Area
   1370 
   1371   Zone,
   1372     PatRoom6_Flr_3,          !- Name
   1373     0.0000,                  !- Direction of Relative North {deg}
   1374     0.0000,                  !- X Origin {m}
   1375     0.0000,                  !- Y Origin {m}
   1376     0.0000,                  !- Z Origin {m}
   1377     1,                       !- Type
   1378     1,                       !- Multiplier
   1379     ,                        !- Ceiling Height {m}
   1380     ,                        !- Volume {m3}
   1381     autocalculate,           !- Floor Area {m2}
   1382     ,                        !- Zone Inside Convection Algorithm
   1383     ,                        !- Zone Outside Convection Algorithm
   1384     Yes;                     !- Part of Total Floor Area
   1385 
   1386   Zone,
   1387     PatRoom6_Flr_4,          !- Name
   1388     0.0000,                  !- Direction of Relative North {deg}
   1389     0.0000,                  !- X Origin {m}
   1390     0.0000,                  !- Y Origin {m}
   1391     0.0000,                  !- Z Origin {m}
   1392     1,                       !- Type
   1393     1,                       !- Multiplier
   1394     ,                        !- Ceiling Height {m}
   1395     ,                        !- Volume {m3}
   1396     autocalculate,           !- Floor Area {m2}
   1397     ,                        !- Zone Inside Convection Algorithm
   1398     ,                        !- Zone Outside Convection Algorithm
   1399     Yes;                     !- Part of Total Floor Area
   1400 
   1401   Zone,
   1402     PatRoom7_Mult10_Flr_3,   !- Name
   1403     0.0000,                  !- Direction of Relative North {deg}
   1404     0.0000,                  !- X Origin {m}
   1405     0.0000,                  !- Y Origin {m}
   1406     0.0000,                  !- Z Origin {m}
   1407     1,                       !- Type
   1408     10,                      !- Multiplier
   1409     ,                        !- Ceiling Height {m}
   1410     ,                        !- Volume {m3}
   1411     autocalculate,           !- Floor Area {m2}
   1412     ,                        !- Zone Inside Convection Algorithm
   1413     ,                        !- Zone Outside Convection Algorithm
   1414     Yes;                     !- Part of Total Floor Area
   1415 
   1416   Zone,
   1417     PatRoom7_Mult10_Flr_4,   !- Name
   1418     0.0000,                  !- Direction of Relative North {deg}
   1419     0.0000,                  !- X Origin {m}
   1420     0.0000,                  !- Y Origin {m}
   1421     0.0000,                  !- Z Origin {m}
   1422     1,                       !- Type
   1423     10,                      !- Multiplier
   1424     ,                        !- Ceiling Height {m}
   1425     ,                        !- Volume {m3}
   1426     autocalculate,           !- Floor Area {m2}
   1427     ,                        !- Zone Inside Convection Algorithm
   1428     ,                        !- Zone Outside Convection Algorithm
   1429     Yes;                     !- Part of Total Floor Area
   1430 
   1431   Zone,
   1432     PatRoom8_Flr_3,          !- Name
   1433     0.0000,                  !- Direction of Relative North {deg}
   1434     0.0000,                  !- X Origin {m}
   1435     0.0000,                  !- Y Origin {m}
   1436     0.0000,                  !- Z Origin {m}
   1437     1,                       !- Type
   1438     1,                       !- Multiplier
   1439     ,                        !- Ceiling Height {m}
   1440     ,                        !- Volume {m3}
   1441     autocalculate,           !- Floor Area {m2}
   1442     ,                        !- Zone Inside Convection Algorithm
   1443     ,                        !- Zone Outside Convection Algorithm
   1444     Yes;                     !- Part of Total Floor Area
   1445 
   1446   Zone,
   1447     PatRoom8_Flr_4,          !- Name
   1448     0.0000,                  !- Direction of Relative North {deg}
   1449     0.0000,                  !- X Origin {m}
   1450     0.0000,                  !- Y Origin {m}
   1451     0.0000,                  !- Z Origin {m}
   1452     1,                       !- Type
   1453     1,                       !- Multiplier
   1454     ,                        !- Ceiling Height {m}
   1455     ,                        !- Volume {m3}
   1456     autocalculate,           !- Floor Area {m2}
   1457     ,                        !- Zone Inside Convection Algorithm
   1458     ,                        !- Zone Outside Convection Algorithm
   1459     Yes;                     !- Part of Total Floor Area
   1460 
   1461   Zone,
   1462     PhysTherapy_Flr_3,       !- Name
   1463     0.0000,                  !- Direction of Relative North {deg}
   1464     0.0000,                  !- X Origin {m}
   1465     0.0000,                  !- Y Origin {m}
   1466     0.0000,                  !- Z Origin {m}
   1467     1,                       !- Type
   1468     1,                       !- Multiplier
   1469     ,                        !- Ceiling Height {m}
   1470     ,                        !- Volume {m3}
   1471     autocalculate,           !- Floor Area {m2}
   1472     ,                        !- Zone Inside Convection Algorithm
   1473     ,                        !- Zone Outside Convection Algorithm
   1474     Yes;                     !- Part of Total Floor Area
   1475 
   1476   Zone,
   1477     Radiology_Flr_4,         !- Name
   1478     0.0000,                  !- Direction of Relative North {deg}
   1479     0.0000,                  !- X Origin {m}
   1480     0.0000,                  !- Y Origin {m}
   1481     0.0000,                  !- Z Origin {m}
   1482     1,                       !- Type
   1483     1,                       !- Multiplier
   1484     ,                        !- Ceiling Height {m}
   1485     ,                        !- Volume {m3}
   1486     autocalculate,           !- Floor Area {m2}
   1487     ,                        !- Zone Inside Convection Algorithm
   1488     ,                        !- Zone Outside Convection Algorithm
   1489     Yes;                     !- Part of Total Floor Area
   1490 
   1491 ! ***WALLS***
   1492 
   1493   BuildingSurface:Detailed,
   1494     Basement_Ceiling,        !- Name
   1495     Ceiling,                 !- Surface Type
   1496     INT-FLOOR-UNDERSIDE,     !- Construction Name
   1497     Basement,                !- Zone Name
   1498     Surface,                 !- Outside Boundary Condition
   1499     Basement_Ceiling,        !- Outside Boundary Condition Object
   1500     NoSun,                   !- Sun Exposure
   1501     NoWind,                  !- Wind Exposure
   1502     AutoCalculate,           !- View Factor to Ground
   1503     4,                       !- Number of Vertices
   1504     0.0000,0.0000,0.0000,  !- X,Y,Z ==> Vertex 1 {m}
   1505     70.1040,0.0000,0.0000,  !- X,Y,Z ==> Vertex 2 {m}
   1506     70.1040,53.3400,0.0000,  !- X,Y,Z ==> Vertex 3 {m}
   1507     0.0000,53.3400,0.0000;  !- X,Y,Z ==> Vertex 4 {m}
   1508 
   1509   BuildingSurface:Detailed,
   1510     Basement_Floor,          !- Name
   1511     Floor,                   !- Surface Type
   1512     ext-slab,                !- Construction Name
   1513     Basement,                !- Zone Name
   1514     Ground,                  !- Outside Boundary Condition
   1515     ,                        !- Outside Boundary Condition Object
   1516     NoSun,                   !- Sun Exposure
   1517     NoWind,                  !- Wind Exposure
   1518     AutoCalculate,           !- View Factor to Ground
   1519     4,                       !- Number of Vertices
   1520     70.1040,53.3400,-2.4390,  !- X,Y,Z ==> Vertex 1 {m}
   1521     70.1040,0.0000,-2.4390,  !- X,Y,Z ==> Vertex 2 {m}
   1522     0.0000,0.0000,-2.4390,  !- X,Y,Z ==> Vertex 3 {m}
   1523     0.0000,53.3400,-2.4390;  !- X,Y,Z ==> Vertex 4 {m}
   1524 
   1525   BuildingSurface:Detailed,
   1526     Basement_Wall_East,      !- Name
   1527     Wall,                    !- Surface Type
   1528     Underground Wall Non-res,!- Construction Name
   1529     Basement,                !- Zone Name
   1530     Ground,                  !- Outside Boundary Condition
   1531     ,                        !- Outside Boundary Condition Object
   1532     NoSun,                   !- Sun Exposure
   1533     NoWind,                  !- Wind Exposure
   1534     AutoCalculate,           !- View Factor to Ground
   1535     4,                       !- Number of Vertices
   1536     70.1040,0.0000,0.0000,  !- X,Y,Z ==> Vertex 1 {m}
   1537     70.1040,0.0000,-2.4390,  !- X,Y,Z ==> Vertex 2 {m}
   1538     70.1040,53.3400,-2.4390,  !- X,Y,Z ==> Vertex 3 {m}
   1539     70.1040,53.3400,0.0000;  !- X,Y,Z ==> Vertex 4 {m}
   1540 
   1541   BuildingSurface:Detailed,
   1542     Basement_Wall_North,     !- Name
   1543     Wall,                    !- Surface Type
   1544     Underground Wall Non-res,!- Construction Name
   1545     Basement,                !- Zone Name
   1546     Ground,                  !- Outside Boundary Condition
   1547     ,                        !- Outside Boundary Condition Object
   1548     NoSun,                   !- Sun Exposure
   1549     NoWind,                  !- Wind Exposure
   1550     AutoCalculate,           !- View Factor to Ground
   1551     4,                       !- Number of Vertices
   1552     70.1040,53.3400,0.0000,  !- X,Y,Z ==> Vertex 1 {m}
[...]
  23807     ComponentSizingSummary,  !- Report 6 Name
  23808     HVACSizingSummary,       !- Report 7 Name
  23809     SystemSummary;           !- Report 8 Name
  23810 
  23811   Output:Table:Monthly,
  23812     Emissions Data Summary,  !- Name
  23813     4,                       !- Digits After Decimal
  23814     CO2:Facility,            !- Variable or Meter 1 Name
  23815     SumOrAverage,            !- Aggregation Type for Variable or Meter 1
  23816     NOx:Facility,            !- Variable or Meter 2 Name
  23817     SumOrAverage,            !- Aggregation Type for Variable or Meter 2
  23818     SO2:Facility,            !- Variable or Meter 3 Name
  23819     SumOrAverage,            !- Aggregation Type for Variable or Meter 3
  23820     PM:Facility,             !- Variable or Meter 4 Name
  23821     SumOrAverage,            !- Aggregation Type for Variable or Meter 4
  23822     Hg:Facility,             !- Variable or Meter 5 Name
  23823     SumOrAverage,            !- Aggregation Type for Variable or Meter 5
  23824     WaterEnvironmentalFactors:Facility,  !- Variable or Meter 6 Name
  23825     SumOrAverage,            !- Aggregation Type for Variable or Meter 6
  23826     Carbon Equivalent:Facility,  !- Variable or Meter 7 Name
  23827     SumOrAverage;            !- Aggregation Type for Variable or Meter 7
  23828 
  23829   Output:Table:Monthly,
  23830     Components of Peak Electrical Demand,  !- Name
  23831     3,                       !- Digits After Decimal
  23832     Electricity:Facility,    !- Variable or Meter 1 Name
  23833     SumOrAverage,            !- Aggregation Type for Variable or Meter 1
  23834     Electricity:Facility,    !- Variable or Meter 2 Name
  23835     Maximum,                 !- Aggregation Type for Variable or Meter 2
  23836     InteriorLights:Electricity,  !- Variable or Meter 3 Name
  23837     ValueWhenMaximumOrMinimum,  !- Aggregation Type for Variable or Meter 3
  23838     InteriorEquipment:Electricity,  !- Variable or Meter 4 Name
  23839     ValueWhenMaximumOrMinimum,  !- Aggregation Type for Variable or Meter 4
  23840     Fans:Electricity,        !- Variable or Meter 5 Name
  23841     ValueWhenMaximumOrMinimum,  !- Aggregation Type for Variable or Meter 5
  23842     Heating:Electricity,     !- Variable or Meter 6 Name
  23843     ValueWhenMaximumOrMinimum,  !- Aggregation Type for Variable or Meter 6
  23844     Cooling:Electricity,     !- Variable or Meter 7 Name
  23845     ValueWhenMaximumOrMinimum,  !- Aggregation Type for Variable or Meter 7
  23846     ExteriorLights:Electricity,  !- Variable or Meter 8 Name
  23847     ValueWhenMaximumOrMinimum,  !- Aggregation Type for Variable or Meter 8
  23848     Pumps:Electricity,       !- Variable or Meter 9 Name
  23849     ValueWhenMaximumOrMinimum,  !- Aggregation Type for Variable or Meter 9
  23850     HeatRejection:Electricity,  !- Variable or Meter 10 Name
  23851     ValueWhenMaximumOrMinimum,  !- Aggregation Type for Variable or Meter 10
  23852     ExteriorEquipment:Electricity,  !- Variable or Meter 11 Name
  23853     ValueWhenMaximumOrMinimum,  !- Aggregation Type for Variable or Meter 11
  23854     Humidification:Electricity,  !- Variable or Meter 12 Name
  23855     ValueWhenMaximumOrMinimum,  !- Aggregation Type for Variable or Meter 12
  23856     HeatRecovery:Electricity,!- Variable or Meter 13 Name
  23857     ValueWhenMaximumOrMinimum,  !- Aggregation Type for Variable or Meter 13
  23858     WaterSystems:Electricity,!- Variable or Meter 14 Name
  23859     ValueWhenMaximumOrMinimum,  !- Aggregation Type for Variable or Meter 14
  23860     Refrigeration:Electricity,  !- Variable or Meter 15 Name
  23861     ValueWhenMaximumOrMinimum,  !- Aggregation Type for Variable or Meter 15
  23862     Generators:Electricity,  !- Variable or Meter 16 Name
  23863     ValueWhenMaximumOrMinimum,  !- Aggregation Type for Variable or Meter 16
  23864     ElectricityProduced:Facility,  !- Variable or Meter 17 Name
  23865     ValueWhenMaximumOrMinimum;  !- Aggregation Type for Variable or Meter 17
  23866 
  23867   Output:Table:Monthly,
  23868     Boiler Part Load Performance,  !- Name
  23869     2,                       !- Digits After Decimal
  23870     Boiler Part Load Ratio,  !- Variable or Meter 1 Name
  23871     SumOrAverage,            !- Aggregation Type for Variable or Meter 1
  23872     Boiler Part Load Ratio,  !- Variable or Meter 2 Name
  23873     Maximum;                 !- Aggregation Type for Variable or Meter 2
  23874 
  23875   Output:Table:Monthly,
  23876     Chiller Part Load Performance,  !- Name
  23877     2,                       !- Digits After Decimal
  23878     Chiller Part Load Ratio, !- Variable or Meter 1 Name
  23879     SumOrAverage,            !- Aggregation Type for Variable or Meter 1
  23880     Chiller Part Load Ratio, !- Variable or Meter 2 Name
  23881     Maximum;                 !- Aggregation Type for Variable or Meter 2
  23882 
  23883   Output:Table:Monthly,
  23884     Fan Part Load Performance,  !- Name
  23885     0,                       !- Digits After Decimal
  23886     Fan Electric Power,      !- Variable or Meter 1 Name
  23887     SumOrAverage,            !- Aggregation Type for Variable or Meter 1
  23888     Fan Electric Power,      !- Variable or Meter 2 Name
  23889     Maximum;                 !- Aggregation Type for Variable or Meter 2
  23890 
  23891   Output:Table:TimeBins,
  23892     *,                       !- Key Value
  23893     Zone Air Relative Humidity,  !- Variable Name
  23894     60,                      !- Interval Start
  23895     10,                      !- Interval Size
  23896     4;                       !- Interval Count
  23897 
  23898   Output:Table:TimeBins,
  23899     *,                       !- Key Value
  23900     Air System Outdoor Air Flow Fraction,  !- Variable Name
  23901     0.00,                    !- Interval Start
  23902     0.20,                    !- Interval Size
  23903     5;                       !- Interval Count
  23904 
  23905   Output:Table:TimeBins,
  23906     *,                       !- Key Value
  23907     Availability Manager Night Cycle Control Status,  !- Variable Name
  23908     0,                       !- Interval Start
  23909     1,                       !- Interval Size
  23910     4;                       !- Interval Count
  23911 
  23912 ! ***ENVIRONMENTAL FACTORS REPORTING***
  23913 
  23914   Output:EnvironmentalImpactFactors,
  23915     Monthly;                 !- Reporting Frequency
  23916 
  23917   EnvironmentalImpactFactors,
  23918     0.663,                   !- District Heating Efficiency
  23919     4.18,                    !- District Cooling COP {W/W}
  23920     0.585,                   !- Steam Conversion Efficiency
  23921     80.7272,                 !- Total Carbon Equivalent Emission Factor From N2O {kg/kg}
  23922     6.2727,                  !- Total Carbon Equivalent Emission Factor From CH4 {kg/kg}
  23923     0.2727;                  !- Total Carbon Equivalent Emission Factor From CO2 {kg/kg}
  23924 
  23925 ! Indiana electricity source and emission factors based on Deru and Torcellini 2007
  23926 
  23927   FuelFactors,
  23928     Electricity,             !- Existing Fuel Resource Name
  23929     kg,                      !- Units of Measure
  23930     ,                        !- Energy per Unit Factor
  23931     3.546,                   !- Source Energy Factor {J/J}
  23932     ,                        !- Source Energy Schedule Name
  23933     3.417E+02,               !- CO2 Emission Factor {g/MJ}
  23934     ,                        !- CO2 Emission Factor Schedule Name
  23935     1.186E-01,               !- CO Emission Factor {g/MJ}
  23936     ,                        !- CO Emission Factor Schedule Name
  23937     7.472E-01,               !- CH4 Emission Factor {g/MJ}
  23938     ,                        !- CH4 Emission Factor Schedule Name
  23939     6.222E-01,               !- NOx Emission Factor {g/MJ}
  23940     ,                        !- NOx Emission Factor Schedule Name
  23941     8.028E-03,               !- N2O Emission Factor {g/MJ}
  23942     ,                        !- N2O Emission Factor Schedule Name
  23943     1.872E+00,               !- SO2 Emission Factor {g/MJ}
  23944     ,                        !- SO2 Emission Factor Schedule Name
  23945     0.0,                     !- PM Emission Factor {g/MJ}
  23946     ,                        !- PM Emission Factor Schedule Name
  23947     1.739E-02,               !- PM10 Emission Factor {g/MJ}
  23948     ,                        !- PM10 Emission Factor Schedule Name
  23949     0.0,                     !- PM2.5 Emission Factor {g/MJ}
  23950     ,                        !- PM2.5 Emission Factor Schedule Name
  23951     0.0,                     !- NH3 Emission Factor {g/MJ}
  23952     ,                        !- NH3 Emission Factor Schedule Name
  23953     1.019E-02,               !- NMVOC Emission Factor {g/MJ}
  23954     ,                        !- NMVOC Emission Factor Schedule Name
  23955     5.639E-06,               !- Hg Emission Factor {g/MJ}
  23956     ,                        !- Hg Emission Factor Schedule Name
  23957     2.778E-05,               !- Pb Emission Factor {g/MJ}
  23958     ,                        !- Pb Emission Factor Schedule Name
  23959     0.4309556,               !- Water Emission Factor {L/MJ}
  23960     ,                        !- Water Emission Factor Schedule Name
  23961     0,                       !- Nuclear High Level Emission Factor {g/MJ}
  23962     ,                        !- Nuclear High Level Emission Factor Schedule Name
  23963     0;                       !- Nuclear Low Level Emission Factor {m3/MJ}
  23964 
  23965 ! Deru and Torcellini 2007
  23966 ! Source Energy and Emission Factors for Energy Use in Buildings
  23967 ! NREL/TP-550-38617
  23968 ! source factor and Higher Heating Values from Table 5
  23969 ! post-combustion emission factors for boiler from Table 9 (with factor of 1000 correction for natural gas)
  23970 
  23971   FuelFactors,
  23972     NaturalGas,              !- Existing Fuel Resource Name
  23973     m3,                      !- Units of Measure
  23974     37631000,                !- Energy per Unit Factor
  23975     1.092,                   !- Source Energy Factor {J/J}
  23976     ,                        !- Source Energy Schedule Name
  23977     5.21E+01,                !- CO2 Emission Factor {g/MJ}
  23978     ,                        !- CO2 Emission Factor Schedule Name
  23979     3.99E-02,                !- CO Emission Factor {g/MJ}
  23980     ,                        !- CO Emission Factor Schedule Name
  23981     1.06E-03,                !- CH4 Emission Factor {g/MJ}
  23982     ,                        !- CH4 Emission Factor Schedule Name
  23983     4.73E-02,                !- NOx Emission Factor {g/MJ}
  23984     ,                        !- NOx Emission Factor Schedule Name
  23985     1.06E-03,                !- N2O Emission Factor {g/MJ}
  23986     ,                        !- N2O Emission Factor Schedule Name
  23987     2.68E-04,                !- SO2 Emission Factor {g/MJ}
  23988     ,                        !- SO2 Emission Factor Schedule Name
  23989     0.0,                     !- PM Emission Factor {g/MJ}
  23990     ,                        !- PM Emission Factor Schedule Name
  23991     3.59E-03,                !- PM10 Emission Factor {g/MJ}
  23992     ,                        !- PM10 Emission Factor Schedule Name
  23993     0.0,                     !- PM2.5 Emission Factor {g/MJ}
  23994     ,                        !- PM2.5 Emission Factor Schedule Name
  23995     0,                       !- NH3 Emission Factor {g/MJ}
  23996     ,                        !- NH3 Emission Factor Schedule Name
  23997     2.61E-03,                !- NMVOC Emission Factor {g/MJ}
  23998     ,                        !- NMVOC Emission Factor Schedule Name
  23999     1.11E-07,                !- Hg Emission Factor {g/MJ}
  24000     ,                        !- Hg Emission Factor Schedule Name
  24001     2.13E-07,                !- Pb Emission Factor {g/MJ}
  24002     ,                        !- Pb Emission Factor Schedule Name
  24003     0,                       !- Water Emission Factor {L/MJ}
  24004     ,                        !- Water Emission Factor Schedule Name
  24005     0,                       !- Nuclear High Level Emission Factor {g/MJ}
  24006     ,                        !- Nuclear High Level Emission Factor Schedule Name
  24007     0;                       !- Nuclear Low Level Emission Factor {m3/MJ}
  24008 
  Processing Input Data File (in.idf) -- Complete
  Maximum number of Alpha IDF Args=          72
  Maximum number of Numeric IDF Args=          32
  Number of IDF "Lines"=        1918
  Number of Defaulted Fields=         958
  Number of Fields with Defaults=        5772
  Number of Autosized Fields=         380
  Number of Autosizable Fields =         511
  Number of Autocalculated Fields=         778
  Number of Autocalculatable Fields =        1223
 Getting object=OUTPUT:SQLITE
 Getting object=VERSION
 Getting object=HEATBALANCEALGORITHM
 Getting object=TIMESTEP
 Getting object=CONVERGENCELIMITS
 Getting object=OUTPUTCONTROL:REPORTINGTOLERANCES
 Getting object=SIMULATIONCONTROL
 Getting object=OUTPUT:SURFACES:LIST
 Getting object=OUTPUT:SURFACES:DRAWING
 Getting object=OUTPUT:VARIABLEDICTIONARY
 Getting object=OUTPUT:CONSTRUCTIONS
 Getting object=BRANCH
 Getting object=CURVE:BIQUADRATIC
 Getting object=CURVE:CUBIC
 Getting object=CURVE:QUADRATIC
 Getting object=CURVE:BICUBIC
 Getting object=NODELIST
 Getting object=BRANCHLIST
 Getting object=DESIGNSPECIFICATION:OUTDOORAIR
 Getting object=SIZING:PARAMETERS
 Getting object=ZONE
 Getting object=SIZING:ZONE
 Getting object=SIZING:SYSTEM
 Getting object=SIZING:PLANT
 Getting object=OUTPUT:TABLE:SUMMARYREPORTS
 Getting object=SIZINGPERIOD:DESIGNDAY
 Getting object=RUNPERIOD
 Getting object=RUNPERIODCONTROL:SPECIALDAYS
 Getting object=RUNPERIODCONTROL:DAYLIGHTSAVINGTIME
 Getting object=SITE:LOCATION
 Getting object=SITE:GROUNDTEMPERATURE:BUILDINGSURFACE
 Getting object=SITE:WATERMAINSTEMPERATURE
 Getting object=OUTPUT:VARIABLE
 Getting object=SCHEDULE:COMPACT
  Processing Schedule Input -- Start
 Getting object=SCHEDULETYPELIMITS
 Getting object=EXTERNALINTERFACE:SCHEDULE
  Processing Schedule Input -- Complete
 Getting object=BUILDING
 Getting object=SURFACECONVECTIONALGORITHM:INSIDE
 Getting object=SURFACECONVECTIONALGORITHM:OUTSIDE
 Getting object=ZONEAIRHEATBALANCEALGORITHM
 Getting object=MATERIAL
 Getting object=MATERIAL:NOMASS
 Getting object=WINDOWMATERIAL:SIMPLEGLAZINGSYSTEM
 Getting object=CONSTRUCTION
 Getting object=GLOBALGEOMETRYRULES
 Getting object=SHADING:BUILDING:DETAILED
 Getting object=BUILDINGSURFACE:DETAILED
 Getting object=FENESTRATIONSURFACE:DETAILED
 Getting object=INTERNALMASS
 Getting object=PEOPLE
 Getting object=LIGHTS
 Getting object=ELECTRICEQUIPMENT
 Getting object=GASEQUIPMENT
 Getting object=SHADOWCALCULATION
 Getting object=REFRIGERATION:CASE
 Getting object=ZONEHVAC:EQUIPMENTCONNECTIONS
 Getting object=ZONEHVAC:EQUIPMENTLIST
 Getting object=AIRLOOPHVAC:SUPPLYPATH
 Getting object=AIRLOOPHVAC:RETURNPATH
 Getting object=REFRIGERATION:COMPRESSORRACK
 Getting object=OUTDOORAIR:NODELIST
 Getting object=OUTDOORAIR:NODE
 Getting object=WATERHEATER:MIXED
 Getting object=ZONEINFILTRATION:DESIGNFLOWRATE
 Getting object=ZONEMIXING
 Getting object=ZONECONTROL:THERMOSTAT
 Getting object=THERMOSTATSETPOINT:DUALSETPOINT
 Getting object=ZONECONTROL:HUMIDISTAT
 Getting object=SETPOINTMANAGER:SCHEDULED
 Getting object=SETPOINTMANAGER:SINGLEZONE:HUMIDITY:MINIMUM
 Getting object=SETPOINTMANAGER:SINGLEZONE:HUMIDITY:MAXIMUM
 Getting object=SETPOINTMANAGER:MIXEDAIR
 Getting object=SETPOINTMANAGER:FOLLOWOUTDOORAIRTEMPERATURE
 Getting object=PLANTLOOP
 Getting object=AVAILABILITYMANAGER:NIGHTCYCLE
 Getting object=AVAILABILITYMANAGERASSIGNMENTLIST
 Getting object=CONDENSERLOOP
 Getting object=CONNECTORLIST
 Getting object=CONNECTOR:SPLITTER
 Getting object=CONNECTOR:MIXER
 Getting object=WATERUSE:EQUIPMENT
 Getting object=WATERUSE:CONNECTIONS
 Getting object=AIRLOOPHVAC:ZONESPLITTER
 Getting object=ZONEHVAC:AIRDISTRIBUTIONUNIT
 Getting object=AIRTERMINAL:SINGLEDUCT:VAV:REHEAT
 Getting object=COIL:HEATING:WATER
 Getting object=COIL:COOLING:WATER:DETAILEDGEOMETRY
 Getting object=FAN:VARIABLEVOLUME
 Getting object=FAN:ZONEEXHAUST
 Getting object=AIRLOOPHVAC:ZONEMIXER
 Getting object=AIRLOOPHVAC
 Getting object=AIRLOOPHVAC:CONTROLLERLIST
 Getting object=AIRLOOPHVAC:OUTDOORAIRSYSTEM
 Getting object=AIRLOOPHVAC:OUTDOORAIRSYSTEM:EQUIPMENTLIST
 Getting object=OUTDOORAIR:MIXER
 Getting object=CONTROLLER:WATERCOIL
 Getting object=EXTERIOR:LIGHTS
 Getting object=EXTERIOR:FUELEQUIPMENT
 Getting object=CONTROLLER:OUTDOORAIR
 Getting object=HUMIDIFIER:STEAM:ELECTRIC
 Getting object=PIPE:ADIABATIC
 Getting object=CHILLER:ELECTRIC:REFORMULATEDEIR
 Getting object=BOILER:HOTWATER
 Getting object=COOLINGTOWER:SINGLESPEED
 Getting object=PLANTEQUIPMENTOPERATIONSCHEMES
 Getting object=CONDENSEREQUIPMENTOPERATIONSCHEMES
 Getting object=PLANTEQUIPMENTOPERATION:COOLINGLOAD
 Getting object=PLANTEQUIPMENTOPERATION:HEATINGLOAD
 Getting object=PLANTEQUIPMENTLIST
 Getting object=CONDENSEREQUIPMENTLIST
 Getting object=PUMP:VARIABLESPEED
 Getting object=PUMP:CONSTANTSPEED
 Getting object=ENVIRONMENTALIMPACTFACTORS
 Getting object=FUELFACTORS
 Getting object=OUTPUT:METER
 Getting object=OUTPUT:ENVIRONMENTALIMPACTFACTORS
 Getting object=EXTERNALINTERFACE
 Getting object=OUTPUT:TABLE:MONTHLY
 Getting object=OUTPUT:TABLE:TIMEBINS
 Getting object=OUTPUTCONTROL:TABLE:STYLE
 Getting object=UTILITYCOST:TARIFF
 Getting object=UTILITYCOST:QUALIFY
 Getting object=UTILITYCOST:CHARGE:SIMPLE
 Getting object=UTILITYCOST:CHARGE:BLOCK
 Getting object=UTILITYCOST:VARIABLE
 MonthlyInputCount=           5
 sizeMonthlyInput=          25
 MonthlyFieldSetInputCount=          30
 sizeMonthlyFieldSetInput=          50
 MonthlyTablesCount=          10
 MonthlyColumnsCount=          40
 sizeReportName=         100
 numReportName=          13
 sizeSubTable=         100
 numSubTable=          62
 sizeColumnTag=         400
 numColumnTag=         381
 sizeTableEntry=       10000
 numTableEntry=        9956
 sizeCompSizeTableEntry=         600
 numCompSizeTableEntry=         548
 NumOfRVariable=       51567
 NumOfRVariable(Total)=       51567
 NumOfRVariable(Actual)=         718
 NumOfRVariable(Summed)=         565
 NumOfRVariable(Meter)=         549
 NumOfIVariable=        2259
 NumOfIVariable(Total)=        2259
 NumOfIVariable(Actual)=          16
 NumOfIVariable(Summed)=           0
 MaxRVariable=        1000
 MaxIVariable=          20
 NumEnergyMeters=         468
 NumVarMeterArrays=         549
 maxUniqueKeyCount=        1500
 maxNumberOfFigures=           4
 MAXHCArrayBounds=          22
 MaxVerticesPerSurface=          10
 NumReportList=         500
 InstMeterCacheSize=        1000
 ClippingAlgorithm=SutherlandHodgman
 MonthlyFieldSetInputCount=          30
 NumConsideredOutputVariables=          52
 MaxConsideredOutputVariables=          52
 numActuatorsUsed=           0
 numEMSActuatorsAvailable=           0
 maxEMSActuatorsAvailable=           0
 numInternalVariablesUsed=           0
 numEMSInternalVarsAvailable=           4
 maxEMSInternalVarsAvailable=        1000
 NumOfNodeConnections=        1541
 MaxNumOfNodeConnections=        2000
