Program Version,EnergyPlus-Windows-64 8.0.0.008, YMD=2013.06.10 17:07
! This file shows details about the branches, nodes, and other
! elements of the flow connections.
! This file is intended for use in "debugging" potential problems
! that may also be detected by the program, but may be more easily
! identified by "eye".
! This file is also intended to support software which draws a
! schematic diagram of the HVAC system.
! ===============================================================
! #Nodes,<Number of Unique Nodes>
 #Nodes,564                 
! <Node>,<NodeNumber>,<Node Name>,<Node Fluid Type>,<# Times Node Referenced After Definition>
 Node,1,BASEMENT VAV BOX OUTLET NODE NAME,Air,4
 Node,2,CAV_1_OAINLET NODE,Air,3
 Node,3,CAV_2_OAINLET NODE,Air,3
 Node,4,CORRIDOR_FLR_1 VAV BOX OUTLET NODE NAME,Air,4
 Node,5,CORRIDOR_FLR_2 VAV BOX OUTLET NODE NAME,Air,4
 Node,6,CORRIDOR_FLR_5 VAV BOX OUTLET NODE NAME,Air,4
 Node,7,CORRIDOR_NW_FLR_3 VAV BOX OUTLET NODE NAME,Air,4
 Node,8,CORRIDOR_NW_FLR_4 VAV BOX OUTLET NODE NAME,Air,4
 Node,9,CORRIDOR_SE_FLR_3 VAV BOX OUTLET NODE NAME,Air,4
 Node,10,CORRIDOR_SE_FLR_4 VAV BOX OUTLET NODE NAME,Air,4
 Node,11,DINING_FLR_5 EXHAUST FAN NODE,Air,2
 Node,12,DINING_FLR_5 VAV BOX OUTLET NODE NAME,Air,4
 Node,13,ER_EXAM1_MULT4_FLR_1 VAV BOX OUTLET NODE NAME,Air,4
 Node,14,ER_EXAM3_MULT4_FLR_1 VAV BOX OUTLET NODE NAME,Air,4
 Node,15,ER_NURSESTN_LOBBY_FLR_1 VAV BOX OUTLET NODE NAME,Air,4
 Node,16,ER_TRAUMA1_FLR_1 VAV BOX OUTLET NODE NAME,Air,4
 Node,17,ER_TRAUMA2_FLR_1 VAV BOX OUTLET NODE NAME,Air,4
 Node,18,ER_TRIAGE_MULT4_FLR_1 VAV BOX OUTLET NODE NAME,Air,4
 Node,19,ICU_FLR_2 VAV BOX OUTLET NODE NAME,Air,4
 Node,20,ICU_NURSESTN_LOBBY_FLR_2 VAV BOX OUTLET NODE NAME,Air,4
 Node,21,IC_PATROOM1_MULT5_FLR_2 VAV BOX OUTLET NODE NAME,Air,4
 Node,22,IC_PATROOM2_FLR_2 VAV BOX OUTLET NODE NAME,Air,4
 Node,23,IC_PATROOM3_MULT6_FLR_2 VAV BOX OUTLET NODE NAME,Air,4
 Node,24,KITCHEN_FLR_5 EXHAUST FAN NODE,Air,2
 Node,25,KITCHEN_FLR_5 VAV BOX OUTLET NODE NAME,Air,4
 Node,26,LAB_FLR_3 VAV BOX OUTLET NODE NAME,Air,4
 Node,27,LAB_FLR_4 VAV BOX OUTLET NODE NAME,Air,4
 Node,28,LOBBY_RECORDS_FLR_1 VAV BOX OUTLET NODE NAME,Air,4
 Node,29,NURSESTN_LOBBY_FLR_3 VAV BOX OUTLET NODE NAME,Air,4
 Node,30,NURSESTN_LOBBY_FLR_4 VAV BOX OUTLET NODE NAME,Air,4
 Node,31,NURSESTN_LOBBY_FLR_5 VAV BOX OUTLET NODE NAME,Air,4
 Node,32,OR1_FLR_2 VAV BOX OUTLET NODE NAME,Air,4
 Node,33,OR2_MULT5_FLR_2 VAV BOX OUTLET NODE NAME,Air,4
 Node,34,OR3_FLR_2 VAV BOX OUTLET NODE NAME,Air,4
 Node,35,OR4_FLR_2 VAV BOX OUTLET NODE NAME,Air,4
 Node,36,OR_NURSESTN_LOBBY_FLR_2 VAV BOX OUTLET NODE NAME,Air,4
 Node,37,OFFICE1_FLR_5 VAV BOX OUTLET NODE NAME,Air,4
 Node,38,OFFICE1_MULT4_FLR_1 VAV BOX OUTLET NODE NAME,Air,4
 Node,39,OFFICE2_MULT5_FLR_5 VAV BOX OUTLET NODE NAME,Air,4
 Node,40,OFFICE3_FLR_5 VAV BOX OUTLET NODE NAME,Air,4
 Node,41,OFFICE4_MULT6_FLR_5 VAV BOX OUTLET NODE NAME,Air,4
 Node,42,PATROOM1_MULT10_FLR_3 VAV BOX OUTLET NODE NAME,Air,4
 Node,43,PATROOM1_MULT10_FLR_4 VAV BOX OUTLET NODE NAME,Air,4
 Node,44,PATROOM2_FLR_3 VAV BOX OUTLET NODE NAME,Air,4
 Node,45,PATROOM2_FLR_4 VAV BOX OUTLET NODE NAME,Air,4
 Node,46,PATROOM3_MULT10_FLR_3 VAV BOX OUTLET NODE NAME,Air,4
 Node,47,PATROOM3_MULT10_FLR_4 VAV BOX OUTLET NODE NAME,Air,4
 Node,48,PATROOM4_FLR_3 VAV BOX OUTLET NODE NAME,Air,4
 Node,49,PATROOM4_FLR_4 VAV BOX OUTLET NODE NAME,Air,4
 Node,50,PATROOM5_MULT10_FLR_3 VAV BOX OUTLET NODE NAME,Air,4
 Node,51,PATROOM5_MULT10_FLR_4 VAV BOX OUTLET NODE NAME,Air,4
 Node,52,PATROOM6_FLR_3 VAV BOX OUTLET NODE NAME,Air,4
 Node,53,PATROOM6_FLR_4 VAV BOX OUTLET NODE NAME,Air,4
 Node,54,PATROOM7_MULT10_FLR_3 VAV BOX OUTLET NODE NAME,Air,4
 Node,55,PATROOM7_MULT10_FLR_4 VAV BOX OUTLET NODE NAME,Air,4
 Node,56,PATROOM8_FLR_3 VAV BOX OUTLET NODE NAME,Air,4
 Node,57,PATROOM8_FLR_4 VAV BOX OUTLET NODE NAME,Air,4
 Node,58,PHYSTHERAPY_FLR_3 VAV BOX OUTLET NODE NAME,Air,4
 Node,59,RADIOLOGY_FLR_4 VAV BOX OUTLET NODE NAME,Air,4
 Node,60,VAV_1_OAINLET NODE,Air,3
 Node,61,VAV_2_OAINLET NODE,Air,3
 Node,62,CAV_1 SUPPLY EQUIPMENT INLET NODE,Air,3
 Node,63,CAV_1_OA-CAV_1 HUMIDIFIERNODE,Air,5
 Node,64,CAV_1 HUMIDIFIER-CAV_1_COOLCNODE,Air,4
 Node,65,CAV_1_COOLC-CAV_1_HEATCNODE,Air,6
 Node,66,CAV_1_HEATC-CAV_1_FANNODE,Air,8
 Node,67,CAV_1 SUPPLY EQUIPMENT OUTLET NODE,Air,9
 Node,68,CAV_2 SUPPLY EQUIPMENT INLET NODE,Air,3
 Node,69,CAV_2_OA-CAV_2 HUMIDIFIERNODE,Air,5
 Node,70,CAV_2 HUMIDIFIER-CAV_2_COOLCNODE,Air,4
 Node,71,CAV_2_COOLC-CAV_2_HEATCNODE,Air,6
 Node,72,CAV_2_HEATC-CAV_2_FANNODE,Air,8
 Node,73,CAV_2 SUPPLY EQUIPMENT OUTLET NODE,Air,9
 Node,74,VAV_1 SUPPLY EQUIPMENT INLET NODE,Air,3
 Node,75,VAV_1_OA-VAV_1_COOLCNODE,Air,5
 Node,76,VAV_1_COOLC-VAV_1_HEATCNODE,Air,5
 Node,77,VAV_1_HEATC-VAV_1_FANNODE,Air,8
 Node,78,VAV_1 SUPPLY EQUIPMENT OUTLET NODE,Air,9
 Node,79,VAV_2 SUPPLY EQUIPMENT INLET NODE,Air,3
 Node,80,VAV_2_OA-VAV_2_COOLCNODE,Air,5
 Node,81,VAV_2_COOLC-VAV_2_HEATCNODE,Air,5
 Node,82,VAV_2_HEATC-VAV_2_FANNODE,Air,8
 Node,83,VAV_2 SUPPLY EQUIPMENT OUTLET NODE,Air,9
 Node,84,COOLSYS1 DEMAND BYPASS PIPE INLET NODE,Water,1
 Node,85,COOLSYS1 DEMAND BYPASS PIPE OUTLET NODE,Water,1
 Node,86,COOLSYS1 DEMAND INLET NODE,Water,2
 Node,87,COOLSYS1 DEMAND INLET PIPE-COOLSYS1 DEMAND MIXER,Water,1
 Node,88,VAV_1_COOLCDEMAND INLET NODE,Water,2
 Node,89,VAV_1_COOLCDEMAND OUTLET NODE,Water,1
 Node,90,CAV_1_COOLCDEMAND INLET NODE,Water,2
 Node,91,CAV_1_COOLCDEMAND OUTLET NODE,Water,1
 Node,92,CAV_2_COOLCDEMAND INLET NODE,Water,2
 Node,93,CAV_2_COOLCDEMAND OUTLET NODE,Water,1
 Node,94,VAV_2_COOLCDEMAND INLET NODE,Water,2
 Node,95,VAV_2_COOLCDEMAND OUTLET NODE,Water,1
 Node,96,COOLSYS1 DEMAND MIXER-COOLSYS1 DEMAND OUTLET PIPE,Water,1
 Node,97,COOLSYS1 DEMAND OUTLET NODE,Water,2
 Node,98,COOLSYS1 PUMP-COOLSYS1 CHILLERNODE,Water,1
 Node,99,COOLSYS1 SUPPLY EQUIPMENT OUTLET NODE,Water,2
 Node,100,COOLSYS1 SUPPLY EQUIP BYPASS INLET NODE,Water,1
 Node,101,COOLSYS1 SUPPLY EQUIP BYPASS OUTLET NODE,Water,1
 Node,102,COOLSYS1 SUPPLY INLET NODE,Water,2
 Node,103,COOLSYS1 PUMP-COOLSYS1 CHILLERNODEVIACONNECTOR,Water,1
 Node,104,COOLSYS1 SUPPLY MIXER-COOLSYS1 SUPPLY OUTLET PIPE,Water,1
 Node,105,COOLSYS1 SUPPLY OUTLET NODE,Water,4
 Node,106,HEATSYS1 DEMAND BYPASS PIPE INLET NODE,Water,1
 Node,107,HEATSYS1 DEMAND BYPASS PIPE OUTLET NODE,Water,1
 Node,108,HEATSYS1 DEMAND INLET NODE,Water,2
 Node,109,HEATSYS1 DEMAND INLET PIPE-HEATSYS1 DEMAND MIXER,Water,1
 Node,110,BASEMENT VAV BOX REHEAT COILDEMAND INLET NODE,Water,1
 Node,111,BASEMENT VAV BOX REHEAT COILDEMAND OUTLET NODE,Water,1
 Node,112,ER_NURSESTN_LOBBY_FLR_1 VAV BOX REHEAT COILDEMAND INLET NODE,Water,1
 Node,113,ER_NURSESTN_LOBBY_FLR_1 VAV BOX REHEAT COILDEMAND OUTLET NODE,Water,1
 Node,114,OR1_FLR_2 VAV BOX REHEAT COILDEMAND INLET NODE,Water,1
 Node,115,OR1_FLR_2 VAV BOX REHEAT COILDEMAND OUTLET NODE,Water,1
 Node,116,OR2_MULT5_FLR_2 VAV BOX REHEAT COILDEMAND INLET NODE,Water,1
 Node,117,OR2_MULT5_FLR_2 VAV BOX REHEAT COILDEMAND OUTLET NODE,Water,1
 Node,118,OR3_FLR_2 VAV BOX REHEAT COILDEMAND INLET NODE,Water,1
 Node,119,OR3_FLR_2 VAV BOX REHEAT COILDEMAND OUTLET NODE,Water,1
 Node,120,OR4_FLR_2 VAV BOX REHEAT COILDEMAND INLET NODE,Water,1
 Node,121,OR4_FLR_2 VAV BOX REHEAT COILDEMAND OUTLET NODE,Water,1
 Node,122,IC_PATROOM1_MULT5_FLR_2 VAV BOX REHEAT COILDEMAND INLET NODE,Water,1
 Node,123,IC_PATROOM1_MULT5_FLR_2 VAV BOX REHEAT COILDEMAND OUTLET NODE,Water,1
 Node,124,IC_PATROOM2_FLR_2 VAV BOX REHEAT COILDEMAND INLET NODE,Water,1
 Node,125,IC_PATROOM2_FLR_2 VAV BOX REHEAT COILDEMAND OUTLET NODE,Water,1
 Node,126,IC_PATROOM3_MULT6_FLR_2 VAV BOX REHEAT COILDEMAND INLET NODE,Water,1
 Node,127,IC_PATROOM3_MULT6_FLR_2 VAV BOX REHEAT COILDEMAND OUTLET NODE,Water,1
 Node,128,ICU_FLR_2 VAV BOX REHEAT COILDEMAND INLET NODE,Water,1
 Node,129,ICU_FLR_2 VAV BOX REHEAT COILDEMAND OUTLET NODE,Water,1
 Node,130,ICU_NURSESTN_LOBBY_FLR_2 VAV BOX REHEAT COILDEMAND INLET NODE,Water,1
 Node,131,ICU_NURSESTN_LOBBY_FLR_2 VAV BOX REHEAT COILDEMAND OUTLET NODE,Water,1
 Node,132,ER_EXAM1_MULT4_FLR_1 VAV BOX REHEAT COILDEMAND INLET NODE,Water,1
 Node,133,ER_EXAM1_MULT4_FLR_1 VAV BOX REHEAT COILDEMAND OUTLET NODE,Water,1
 Node,134,CORRIDOR_FLR_2 VAV BOX REHEAT COILDEMAND INLET NODE,Water,1
 Node,135,CORRIDOR_FLR_2 VAV BOX REHEAT COILDEMAND OUTLET NODE,Water,1
 Node,136,OR_NURSESTN_LOBBY_FLR_2 VAV BOX REHEAT COILDEMAND INLET NODE,Water,1
 Node,137,OR_NURSESTN_LOBBY_FLR_2 VAV BOX REHEAT COILDEMAND OUTLET NODE,Water,1
 Node,138,PATROOM1_MULT10_FLR_3 VAV BOX REHEAT COILDEMAND INLET NODE,Water,1
 Node,139,PATROOM1_MULT10_FLR_3 VAV BOX REHEAT COILDEMAND OUTLET NODE,Water,1
 Node,140,PATROOM2_FLR_3 VAV BOX REHEAT COILDEMAND INLET NODE,Water,1
 Node,141,PATROOM2_FLR_3 VAV BOX REHEAT COILDEMAND OUTLET NODE,Water,1
 Node,142,PATROOM3_MULT10_FLR_3 VAV BOX REHEAT COILDEMAND INLET NODE,Water,1
 Node,143,PATROOM3_MULT10_FLR_3 VAV BOX REHEAT COILDEMAND OUTLET NODE,Water,1
 Node,144,PATROOM4_FLR_3 VAV BOX REHEAT COILDEMAND INLET NODE,Water,1
 Node,145,PATROOM4_FLR_3 VAV BOX REHEAT COILDEMAND OUTLET NODE,Water,1
 Node,146,PATROOM5_MULT10_FLR_3 VAV BOX REHEAT COILDEMAND INLET NODE,Water,1
 Node,147,PATROOM5_MULT10_FLR_3 VAV BOX REHEAT COILDEMAND OUTLET NODE,Water,1
 Node,148,PHYSTHERAPY_FLR_3 VAV BOX REHEAT COILDEMAND INLET NODE,Water,1
 Node,149,PHYSTHERAPY_FLR_3 VAV BOX REHEAT COILDEMAND OUTLET NODE,Water,1
 Node,150,PATROOM6_FLR_3 VAV BOX REHEAT COILDEMAND INLET NODE,Water,1
 Node,151,PATROOM6_FLR_3 VAV BOX REHEAT COILDEMAND OUTLET NODE,Water,1
 Node,152,PATROOM7_MULT10_FLR_3 VAV BOX REHEAT COILDEMAND INLET NODE,Water,1
 Node,153,PATROOM7_MULT10_FLR_3 VAV BOX REHEAT COILDEMAND OUTLET NODE,Water,1
 Node,154,ER_TRAUMA1_FLR_1 VAV BOX REHEAT COILDEMAND INLET NODE,Water,1
 Node,155,ER_TRAUMA1_FLR_1 VAV BOX REHEAT COILDEMAND OUTLET NODE,Water,1
 Node,156,PATROOM8_FLR_3 VAV BOX REHEAT COILDEMAND INLET NODE,Water,1
 Node,157,PATROOM8_FLR_3 VAV BOX REHEAT COILDEMAND OUTLET NODE,Water,1
 Node,158,NURSESTN_LOBBY_FLR_3 VAV BOX REHEAT COILDEMAND INLET NODE,Water,1
 Node,159,NURSESTN_LOBBY_FLR_3 VAV BOX REHEAT COILDEMAND OUTLET NODE,Water,1
 Node,160,LAB_FLR_3 VAV BOX REHEAT COILDEMAND INLET NODE,Water,1
 Node,161,LAB_FLR_3 VAV BOX REHEAT COILDEMAND OUTLET NODE,Water,1
 Node,162,CORRIDOR_SE_FLR_3 VAV BOX REHEAT COILDEMAND INLET NODE,Water,1
 Node,163,CORRIDOR_SE_FLR_3 VAV BOX REHEAT COILDEMAND OUTLET NODE,Water,1
 Node,164,CORRIDOR_NW_FLR_3 VAV BOX REHEAT COILDEMAND INLET NODE,Water,1
 Node,165,CORRIDOR_NW_FLR_3 VAV BOX REHEAT COILDEMAND OUTLET NODE,Water,1
 Node,166,PATROOM1_MULT10_FLR_4 VAV BOX REHEAT COILDEMAND INLET NODE,Water,1
 Node,167,PATROOM1_MULT10_FLR_4 VAV BOX REHEAT COILDEMAND OUTLET NODE,Water,1
 Node,168,PATROOM2_FLR_4 VAV BOX REHEAT COILDEMAND INLET NODE,Water,1
 Node,169,PATROOM2_FLR_4 VAV BOX REHEAT COILDEMAND OUTLET NODE,Water,1
 Node,170,PATROOM3_MULT10_FLR_4 VAV BOX REHEAT COILDEMAND INLET NODE,Water,1
 Node,171,PATROOM3_MULT10_FLR_4 VAV BOX REHEAT COILDEMAND OUTLET NODE,Water,1
 Node,172,PATROOM4_FLR_4 VAV BOX REHEAT COILDEMAND INLET NODE,Water,1
 Node,173,PATROOM4_FLR_4 VAV BOX REHEAT COILDEMAND OUTLET NODE,Water,1
 Node,174,PATROOM5_MULT10_FLR_4 VAV BOX REHEAT COILDEMAND INLET NODE,Water,1
 Node,175,PATROOM5_MULT10_FLR_4 VAV BOX REHEAT COILDEMAND OUTLET NODE,Water,1
 Node,176,ER_EXAM3_MULT4_FLR_1 VAV BOX REHEAT COILDEMAND INLET NODE,Water,1
 Node,177,ER_EXAM3_MULT4_FLR_1 VAV BOX REHEAT COILDEMAND OUTLET NODE,Water,1
 Node,178,RADIOLOGY_FLR_4 VAV BOX REHEAT COILDEMAND INLET NODE,Water,1
 Node,179,RADIOLOGY_FLR_4 VAV BOX REHEAT COILDEMAND OUTLET NODE,Water,1
 Node,180,PATROOM6_FLR_4 VAV BOX REHEAT COILDEMAND INLET NODE,Water,1
 Node,181,PATROOM6_FLR_4 VAV BOX REHEAT COILDEMAND OUTLET NODE,Water,1
 Node,182,PATROOM7_MULT10_FLR_4 VAV BOX REHEAT COILDEMAND INLET NODE,Water,1
 Node,183,PATROOM7_MULT10_FLR_4 VAV BOX REHEAT COILDEMAND OUTLET NODE,Water,1
 Node,184,PATROOM8_FLR_4 VAV BOX REHEAT COILDEMAND INLET NODE,Water,1
 Node,185,PATROOM8_FLR_4 VAV BOX REHEAT COILDEMAND OUTLET NODE,Water,1
 Node,186,NURSESTN_LOBBY_FLR_4 VAV BOX REHEAT COILDEMAND INLET NODE,Water,1
 Node,187,NURSESTN_LOBBY_FLR_4 VAV BOX REHEAT COILDEMAND OUTLET NODE,Water,1
 Node,188,LAB_FLR_4 VAV BOX REHEAT COILDEMAND INLET NODE,Water,1
 Node,189,LAB_FLR_4 VAV BOX REHEAT COILDEMAND OUTLET NODE,Water,1
 Node,190,CORRIDOR_SE_FLR_4 VAV BOX REHEAT COILDEMAND INLET NODE,Water,1
 Node,191,CORRIDOR_SE_FLR_4 VAV BOX REHEAT COILDEMAND OUTLET NODE,Water,1
 Node,192,CORRIDOR_NW_FLR_4 VAV BOX REHEAT COILDEMAND INLET NODE,Water,1
 Node,193,CORRIDOR_NW_FLR_4 VAV BOX REHEAT COILDEMAND OUTLET NODE,Water,1
 Node,194,DINING_FLR_5 VAV BOX REHEAT COILDEMAND INLET NODE,Water,1
 Node,195,DINING_FLR_5 VAV BOX REHEAT COILDEMAND OUTLET NODE,Water,1
 Node,196,NURSESTN_LOBBY_FLR_5 VAV BOX REHEAT COILDEMAND INLET NODE,Water,1
 Node,197,NURSESTN_LOBBY_FLR_5 VAV BOX REHEAT COILDEMAND OUTLET NODE,Water,1
 Node,198,ER_TRAUMA2_FLR_1 VAV BOX REHEAT COILDEMAND INLET NODE,Water,1
 Node,199,ER_TRAUMA2_FLR_1 VAV BOX REHEAT COILDEMAND OUTLET NODE,Water,1
 Node,200,KITCHEN_FLR_5 VAV BOX REHEAT COILDEMAND INLET NODE,Water,1
 Node,201,KITCHEN_FLR_5 VAV BOX REHEAT COILDEMAND OUTLET NODE,Water,1
 Node,202,OFFICE1_FLR_5 VAV BOX REHEAT COILDEMAND INLET NODE,Water,1
 Node,203,OFFICE1_FLR_5 VAV BOX REHEAT COILDEMAND OUTLET NODE,Water,1
 Node,204,OFFICE2_MULT5_FLR_5 VAV BOX REHEAT COILDEMAND INLET NODE,Water,1
 Node,205,OFFICE2_MULT5_FLR_5 VAV BOX REHEAT COILDEMAND OUTLET NODE,Water,1
 Node,206,OFFICE3_FLR_5 VAV BOX REHEAT COILDEMAND INLET NODE,Water,1
 Node,207,OFFICE3_FLR_5 VAV BOX REHEAT COILDEMAND OUTLET NODE,Water,1
 Node,208,OFFICE4_MULT6_FLR_5 VAV BOX REHEAT COILDEMAND INLET NODE,Water,1
 Node,209,OFFICE4_MULT6_FLR_5 VAV BOX REHEAT COILDEMAND OUTLET NODE,Water,1
 Node,210,CORRIDOR_FLR_5 VAV BOX REHEAT COILDEMAND INLET NODE,Water,1
 Node,211,CORRIDOR_FLR_5 VAV BOX REHEAT COILDEMAND OUTLET NODE,Water,1
 Node,212,VAV_1_HEATCDEMAND INLET NODE,Water,2
 Node,213,VAV_1_HEATCDEMAND OUTLET NODE,Water,1
 Node,214,CAV_1_HEATCDEMAND INLET NODE,Water,2
 Node,215,CAV_1_HEATCDEMAND OUTLET NODE,Water,1
 Node,216,CAV_2_HEATCDEMAND INLET NODE,Water,2
 Node,217,CAV_2_HEATCDEMAND OUTLET NODE,Water,1
 Node,218,VAV_2_HEATCDEMAND INLET NODE,Water,2
 Node,219,VAV_2_HEATCDEMAND OUTLET NODE,Water,1
 Node,220,ER_TRIAGE_MULT4_FLR_1 VAV BOX REHEAT COILDEMAND INLET NODE,Water,1
 Node,221,ER_TRIAGE_MULT4_FLR_1 VAV BOX REHEAT COILDEMAND OUTLET NODE,Water,1
 Node,222,OFFICE1_MULT4_FLR_1 VAV BOX REHEAT COILDEMAND INLET NODE,Water,1
 Node,223,OFFICE1_MULT4_FLR_1 VAV BOX REHEAT COILDEMAND OUTLET NODE,Water,1
 Node,224,LOBBY_RECORDS_FLR_1 VAV BOX REHEAT COILDEMAND INLET NODE,Water,1
 Node,225,LOBBY_RECORDS_FLR_1 VAV BOX REHEAT COILDEMAND OUTLET NODE,Water,1
 Node,226,CORRIDOR_FLR_1 VAV BOX REHEAT COILDEMAND INLET NODE,Water,1
 Node,227,CORRIDOR_FLR_1 VAV BOX REHEAT COILDEMAND OUTLET NODE,Water,1
 Node,228,HEATSYS1 DEMAND MIXER-HEATSYS1 DEMAND OUTLET PIPE,Water,1
 Node,229,HEATSYS1 DEMAND OUTLET NODE,Water,2
 Node,230,HEATSYS1 PUMP-HEATSYS1 BOILERNODE,Water,1
 Node,231,HEATSYS1 SUPPLY EQUIPMENT OUTLET NODE,Water,2
 Node,232,HEATSYS1 SUPPLY EQUIP BYPASS INLET NODE,Water,1
 Node,233,HEATSYS1 SUPPLY EQUIP BYPASS OUTLET NODE,Water,1
 Node,234,HEATSYS1 SUPPLY INLET NODE,Water,2
 Node,235,HEATSYS1 PUMP-HEATSYS1 BOILERNODEVIACONNECTOR,Water,1
 Node,236,HEATSYS1 SUPPLY MIXER-HEATSYS1 SUPPLY OUTLET PIPE,Water,1
 Node,237,HEATSYS1 SUPPLY OUTLET NODE,Water,4
 Node,238,TOWERWATERSYS DEMAND BYPASS PIPE INLET NODE,Water,1
 Node,239,TOWERWATERSYS DEMAND BYPASS PIPE OUTLET NODE,Water,1
 Node,240,TOWERWATERSYS DEMAND INLET NODE,Water,2
 Node,241,TOWERWATERSYS DEMAND INLET PIPE-TOWERWATERSYS DEMAND MIXER,Water,1
 Node,242,COOLSYS1 CHILLER WATER INLET NODE,Water,1
 Node,243,COOLSYS1 CHILLER WATER OUTLET NODE,Water,1
 Node,244,TOWERWATERSYS DEMAND MIXER-TOWERWATERSYS DEMAND OUTLET PIPE,Water,1
 Node,245,TOWERWATERSYS DEMAND OUTLET NODE,Water,2
 Node,246,TOWERWATERSYS PUMP-TOWERWATERSYS COOLTOWERNODE,Water,1
 Node,247,TOWERWATERSYS SUPPLY EQUIPMENT OUTLET NODE,Water,1
 Node,248,TOWERWATERSYS SUPPLY EQUIP BYPASS INLET NODE,Water,1
 Node,249,TOWERWATERSYS SUPPLY EQUIP BYPASS OUTLET NODE,Water,1
 Node,250,TOWERWATERSYS SUPPLY INLET NODE,Water,2
 Node,251,TOWERWATERSYS PUMP-TOWERWATERSYS COOLTOWERNODEVIACONNECTOR,Water,1
 Node,252,TOWERWATERSYS SUPPLY MIXER-TOWERWATERSYS SUPPLY OUTLET PIPE,Water,1
 Node,253,TOWERWATERSYS SUPPLY OUTLET NODE,Water,4
 Node,254,SWHSYS1 DEMAND BYPASS PIPE INLET NODE,Water,1
 Node,255,SWHSYS1 DEMAND BYPASS PIPE OUTLET NODE,Water,1
 Node,256,SWHSYS1 DEMAND INLET NODE,Water,2
 Node,257,SWHSYS1 DEMAND INLET PIPE-SWHSYS1 DEMAND MIXER,Water,1
 Node,258,ER_EXAM1_MULT4_FLR_1 WATER EQUIPMENT WATER INLET NODE,Water,1
 Node,259,ER_EXAM1_MULT4_FLR_1 WATER EQUIPMENT WATER OUTLET NODE,Water,1
 Node,260,PATROOM1_MULT10_FLR_3 WATER EQUIPMENT WATER INLET NODE,Water,1
 Node,261,PATROOM1_MULT10_FLR_3 WATER EQUIPMENT WATER OUTLET NODE,Water,1
 Node,262,PATROOM2_FLR_3 WATER EQUIPMENT WATER INLET NODE,Water,1
 Node,263,PATROOM2_FLR_3 WATER EQUIPMENT WATER OUTLET NODE,Water,1
 Node,264,PATROOM3_MULT10_FLR_3 WATER EQUIPMENT WATER INLET NODE,Water,1
 Node,265,PATROOM3_MULT10_FLR_3 WATER EQUIPMENT WATER OUTLET NODE,Water,1
 Node,266,PATROOM4_FLR_3 WATER EQUIPMENT WATER INLET NODE,Water,1
 Node,267,PATROOM4_FLR_3 WATER EQUIPMENT WATER OUTLET NODE,Water,1
 Node,268,PATROOM5_MULT10_FLR_3 WATER EQUIPMENT WATER INLET NODE,Water,1
 Node,269,PATROOM5_MULT10_FLR_3 WATER EQUIPMENT WATER OUTLET NODE,Water,1
 Node,270,PHYSTHERAPY_FLR_3 WATER EQUIPMENT WATER INLET NODE,Water,1
 Node,271,PHYSTHERAPY_FLR_3 WATER EQUIPMENT WATER OUTLET NODE,Water,1
 Node,272,PATROOM6_FLR_3 WATER EQUIPMENT WATER INLET NODE,Water,1
 Node,273,PATROOM6_FLR_3 WATER EQUIPMENT WATER OUTLET NODE,Water,1
 Node,274,PATROOM7_MULT10_FLR_3 WATER EQUIPMENT WATER INLET NODE,Water,1
 Node,275,PATROOM7_MULT10_FLR_3 WATER EQUIPMENT WATER OUTLET NODE,Water,1
 Node,276,PATROOM8_FLR_3 WATER EQUIPMENT WATER INLET NODE,Water,1
 Node,277,PATROOM8_FLR_3 WATER EQUIPMENT WATER OUTLET NODE,Water,1
 Node,278,LAB_FLR_3 WATER EQUIPMENT WATER INLET NODE,Water,1
 Node,279,LAB_FLR_3 WATER EQUIPMENT WATER OUTLET NODE,Water,1
 Node,280,ER_TRAUMA1_FLR_1 WATER EQUIPMENT WATER INLET NODE,Water,1
 Node,281,ER_TRAUMA1_FLR_1 WATER EQUIPMENT WATER OUTLET NODE,Water,1
 Node,282,PATROOM1_MULT10_FLR_4 WATER EQUIPMENT WATER INLET NODE,Water,1
 Node,283,PATROOM1_MULT10_FLR_4 WATER EQUIPMENT WATER OUTLET NODE,Water,1
 Node,284,PATROOM2_FLR_4 WATER EQUIPMENT WATER INLET NODE,Water,1
 Node,285,PATROOM2_FLR_4 WATER EQUIPMENT WATER OUTLET NODE,Water,1
 Node,286,PATROOM3_MULT10_FLR_4 WATER EQUIPMENT WATER INLET NODE,Water,1
 Node,287,PATROOM3_MULT10_FLR_4 WATER EQUIPMENT WATER OUTLET NODE,Water,1
 Node,288,PATROOM4_FLR_4 WATER EQUIPMENT WATER INLET NODE,Water,1
 Node,289,PATROOM4_FLR_4 WATER EQUIPMENT WATER OUTLET NODE,Water,1
 Node,290,PATROOM5_MULT10_FLR_4 WATER EQUIPMENT WATER INLET NODE,Water,1
 Node,291,PATROOM5_MULT10_FLR_4 WATER EQUIPMENT WATER OUTLET NODE,Water,1
 Node,292,RADIOLOGY_FLR_4 WATER EQUIPMENT WATER INLET NODE,Water,1
 Node,293,RADIOLOGY_FLR_4 WATER EQUIPMENT WATER OUTLET NODE,Water,1
 Node,294,PATROOM6_FLR_4 WATER EQUIPMENT WATER INLET NODE,Water,1
 Node,295,PATROOM6_FLR_4 WATER EQUIPMENT WATER OUTLET NODE,Water,1
 Node,296,PATROOM7_MULT10_FLR_4 WATER EQUIPMENT WATER INLET NODE,Water,1
 Node,297,PATROOM7_MULT10_FLR_4 WATER EQUIPMENT WATER OUTLET NODE,Water,1
 Node,298,PATROOM8_FLR_4 WATER EQUIPMENT WATER INLET NODE,Water,1
 Node,299,PATROOM8_FLR_4 WATER EQUIPMENT WATER OUTLET NODE,Water,1
 Node,300,LAB_FLR_4 WATER EQUIPMENT WATER INLET NODE,Water,1
 Node,301,LAB_FLR_4 WATER EQUIPMENT WATER OUTLET NODE,Water,1
 Node,302,ER_EXAM3_MULT4_FLR_1 WATER EQUIPMENT WATER INLET NODE,Water,1
 Node,303,ER_EXAM3_MULT4_FLR_1 WATER EQUIPMENT WATER OUTLET NODE,Water,1
 Node,304,KITCHEN_FLR_5 WATER EQUIPMENT WATER INLET NODE,Water,1
 Node,305,KITCHEN_FLR_5 WATER EQUIPMENT WATER OUTLET NODE,Water,1
 Node,306,ER_TRAUMA2_FLR_1 WATER EQUIPMENT WATER INLET NODE,Water,1
 Node,307,ER_TRAUMA2_FLR_1 WATER EQUIPMENT WATER OUTLET NODE,Water,1
 Node,308,ER_TRIAGE_MULT4_FLR_1 WATER EQUIPMENT WATER INLET NODE,Water,1
 Node,309,ER_TRIAGE_MULT4_FLR_1 WATER EQUIPMENT WATER OUTLET NODE,Water,1
 Node,310,OR1_FLR_2 WATER EQUIPMENT WATER INLET NODE,Water,1
 Node,311,OR1_FLR_2 WATER EQUIPMENT WATER OUTLET NODE,Water,1
 Node,312,OR2_MULT5_FLR_2 WATER EQUIPMENT WATER INLET NODE,Water,1
 Node,313,OR2_MULT5_FLR_2 WATER EQUIPMENT WATER OUTLET NODE,Water,1
 Node,314,OR3_FLR_2 WATER EQUIPMENT WATER INLET NODE,Water,1
 Node,315,OR3_FLR_2 WATER EQUIPMENT WATER OUTLET NODE,Water,1
 Node,316,OR4_FLR_2 WATER EQUIPMENT WATER INLET NODE,Water,1
 Node,317,OR4_FLR_2 WATER EQUIPMENT WATER OUTLET NODE,Water,1
 Node,318,SWHSYS1 DEMAND MIXER-SWHSYS1 DEMAND OUTLET PIPE,Water,1
 Node,319,SWHSYS1 DEMAND OUTLET NODE,Water,2
 Node,320,SWHSYS1 PUMP-SWHSYS1 WATER HEATERNODE,Water,1
 Node,321,SWHSYS1 SUPPLY EQUIPMENT OUTLET NODE,Water,1
 Node,322,SWHSYS1 SUPPLY EQUIP BYPASS INLET NODE,Water,1
 Node,323,SWHSYS1 SUPPLY EQUIP BYPASS OUTLET NODE,Water,1
 Node,324,SWHSYS1 SUPPLY INLET NODE,Water,2
 Node,325,SWHSYS1 PUMP-SWHSYS1 WATER HEATERNODEVIACONNECTOR,Water,1
 Node,326,SWHSYS1 SUPPLY MIXER-SWHSYS1 SUPPLY OUTLET PIPE,Water,1
 Node,327,SWHSYS1 SUPPLY OUTLET NODE,Water,4
 Node,328,BASEMENT AIR NODE,Air,0
 Node,329,BASEMENT RETURN AIR NODE NAME,Air,1
 Node,330,CORRIDOR_FLR_1 AIR NODE,Air,0
 Node,331,CORRIDOR_FLR_1 RETURN AIR NODE NAME,Air,1
 Node,332,CORRIDOR_FLR_2 AIR NODE,Air,0
 Node,333,CORRIDOR_FLR_2 RETURN AIR NODE NAME,Air,1
 Node,334,CORRIDOR_FLR_5 AIR NODE,Air,0
 Node,335,CORRIDOR_FLR_5 RETURN AIR NODE NAME,Air,1
 Node,336,CORRIDOR_NW_FLR_3 AIR NODE,Air,0
 Node,337,CORRIDOR_NW_FLR_3 RETURN AIR NODE NAME,Air,1
 Node,338,CORRIDOR_NW_FLR_4 AIR NODE,Air,0
 Node,339,CORRIDOR_NW_FLR_4 RETURN AIR NODE NAME,Air,1
 Node,340,CORRIDOR_SE_FLR_3 AIR NODE,Air,0
 Node,341,CORRIDOR_SE_FLR_3 RETURN AIR NODE NAME,Air,1
 Node,342,CORRIDOR_SE_FLR_4 AIR NODE,Air,0
 Node,343,CORRIDOR_SE_FLR_4 RETURN AIR NODE NAME,Air,1
 Node,344,DINING_FLR_5 AIR NODE,Air,0
 Node,345,DINING_FLR_5 RETURN AIR NODE NAME,Air,1
 Node,346,ER_EXAM1_MULT4_FLR_1 AIR NODE,Air,0
 Node,347,ER_EXAM1_MULT4_FLR_1 RETURN AIR NODE NAME,Air,1
 Node,348,ER_EXAM3_MULT4_FLR_1 AIR NODE,Air,2
 Node,349,ER_EXAM3_MULT4_FLR_1 RETURN AIR NODE NAME,Air,1
 Node,350,ER_NURSESTN_LOBBY_FLR_1 AIR NODE,Air,0
 Node,351,ER_NURSESTN_LOBBY_FLR_1 RETURN AIR NODE NAME,Air,1
 Node,352,ER_TRAUMA1_FLR_1 AIR NODE,Air,0
 Node,353,ER_TRAUMA1_FLR_1 RETURN AIR NODE NAME,Air,1
 Node,354,ER_TRAUMA2_FLR_1 AIR NODE,Air,0
 Node,355,ER_TRAUMA2_FLR_1 RETURN AIR NODE NAME,Air,1
 Node,356,ER_TRIAGE_MULT4_FLR_1 AIR NODE,Air,0
 Node,357,ER_TRIAGE_MULT4_FLR_1 RETURN AIR NODE NAME,Air,1
 Node,358,ICU_FLR_2 AIR NODE,Air,0
 Node,359,ICU_FLR_2 RETURN AIR NODE NAME,Air,1
 Node,360,ICU_NURSESTN_LOBBY_FLR_2 AIR NODE,Air,0
 Node,361,ICU_NURSESTN_LOBBY_FLR_2 RETURN AIR NODE NAME,Air,1
 Node,362,IC_PATROOM1_MULT5_FLR_2 AIR NODE,Air,0
 Node,363,IC_PATROOM1_MULT5_FLR_2 RETURN AIR NODE NAME,Air,1
 Node,364,IC_PATROOM2_FLR_2 AIR NODE,Air,0
 Node,365,IC_PATROOM2_FLR_2 RETURN AIR NODE NAME,Air,1
 Node,366,IC_PATROOM3_MULT6_FLR_2 AIR NODE,Air,0
 Node,367,IC_PATROOM3_MULT6_FLR_2 RETURN AIR NODE NAME,Air,1
 Node,368,KITCHEN_FLR_5 AIR NODE,Air,0
 Node,369,KITCHEN_FLR_5 RETURN AIR NODE NAME,Air,1
 Node,370,LAB_FLR_3 AIR NODE,Air,0
 Node,371,LAB_FLR_3 RETURN AIR NODE NAME,Air,1
 Node,372,LAB_FLR_4 AIR NODE,Air,0
 Node,373,LAB_FLR_4 RETURN AIR NODE NAME,Air,1
 Node,374,LOBBY_RECORDS_FLR_1 AIR NODE,Air,0
 Node,375,LOBBY_RECORDS_FLR_1 RETURN AIR NODE NAME,Air,1
 Node,376,NURSESTN_LOBBY_FLR_3 AIR NODE,Air,0
 Node,377,NURSESTN_LOBBY_FLR_3 RETURN AIR NODE NAME,Air,1
 Node,378,NURSESTN_LOBBY_FLR_4 AIR NODE,Air,0
 Node,379,NURSESTN_LOBBY_FLR_4 RETURN AIR NODE NAME,Air,1
 Node,380,NURSESTN_LOBBY_FLR_5 AIR NODE,Air,0
 Node,381,NURSESTN_LOBBY_FLR_5 RETURN AIR NODE NAME,Air,1
 Node,382,OR1_FLR_2 AIR NODE,Air,0
 Node,383,OR1_FLR_2 RETURN AIR NODE NAME,Air,1
 Node,384,OR2_MULT5_FLR_2 AIR NODE,Air,2
 Node,385,OR2_MULT5_FLR_2 RETURN AIR NODE NAME,Air,1
 Node,386,OR3_FLR_2 AIR NODE,Air,0
 Node,387,OR3_FLR_2 RETURN AIR NODE NAME,Air,1
 Node,388,OR4_FLR_2 AIR NODE,Air,0
 Node,389,OR4_FLR_2 RETURN AIR NODE NAME,Air,1
 Node,390,OR_NURSESTN_LOBBY_FLR_2 AIR NODE,Air,0
 Node,391,OR_NURSESTN_LOBBY_FLR_2 RETURN AIR NODE NAME,Air,1
 Node,392,OFFICE1_FLR_5 AIR NODE,Air,0
 Node,393,OFFICE1_FLR_5 RETURN AIR NODE NAME,Air,1
 Node,394,OFFICE1_MULT4_FLR_1 AIR NODE,Air,0
 Node,395,OFFICE1_MULT4_FLR_1 RETURN AIR NODE NAME,Air,1
 Node,396,OFFICE2_MULT5_FLR_5 AIR NODE,Air,0
 Node,397,OFFICE2_MULT5_FLR_5 RETURN AIR NODE NAME,Air,1
 Node,398,OFFICE3_FLR_5 AIR NODE,Air,0
 Node,399,OFFICE3_FLR_5 RETURN AIR NODE NAME,Air,1
 Node,400,OFFICE4_MULT6_FLR_5 AIR NODE,Air,0
 Node,401,OFFICE4_MULT6_FLR_5 RETURN AIR NODE NAME,Air,1
 Node,402,PATROOM1_MULT10_FLR_3 AIR NODE,Air,0
 Node,403,PATROOM1_MULT10_FLR_3 RETURN AIR NODE NAME,Air,1
 Node,404,PATROOM1_MULT10_FLR_4 AIR NODE,Air,0
 Node,405,PATROOM1_MULT10_FLR_4 RETURN AIR NODE NAME,Air,1
 Node,406,PATROOM2_FLR_3 AIR NODE,Air,0
 Node,407,PATROOM2_FLR_3 RETURN AIR NODE NAME,Air,1
 Node,408,PATROOM2_FLR_4 AIR NODE,Air,0
 Node,409,PATROOM2_FLR_4 RETURN AIR NODE NAME,Air,1
 Node,410,PATROOM3_MULT10_FLR_3 AIR NODE,Air,0
 Node,411,PATROOM3_MULT10_FLR_3 RETURN AIR NODE NAME,Air,1
 Node,412,PATROOM3_MULT10_FLR_4 AIR NODE,Air,0
 Node,413,PATROOM3_MULT10_FLR_4 RETURN AIR NODE NAME,Air,1
 Node,414,PATROOM4_FLR_3 AIR NODE,Air,0
 Node,415,PATROOM4_FLR_3 RETURN AIR NODE NAME,Air,1
 Node,416,PATROOM4_FLR_4 AIR NODE,Air,0
 Node,417,PATROOM4_FLR_4 RETURN AIR NODE NAME,Air,1
 Node,418,PATROOM5_MULT10_FLR_3 AIR NODE,Air,0
 Node,419,PATROOM5_MULT10_FLR_3 RETURN AIR NODE NAME,Air,1
 Node,420,PATROOM5_MULT10_FLR_4 AIR NODE,Air,0
 Node,421,PATROOM5_MULT10_FLR_4 RETURN AIR NODE NAME,Air,1
 Node,422,PATROOM6_FLR_3 AIR NODE,Air,0
 Node,423,PATROOM6_FLR_3 RETURN AIR NODE NAME,Air,1
 Node,424,PATROOM6_FLR_4 AIR NODE,Air,0
 Node,425,PATROOM6_FLR_4 RETURN AIR NODE NAME,Air,1
 Node,426,PATROOM7_MULT10_FLR_3 AIR NODE,Air,0
 Node,427,PATROOM7_MULT10_FLR_3 RETURN AIR NODE NAME,Air,1
 Node,428,PATROOM7_MULT10_FLR_4 AIR NODE,Air,0
 Node,429,PATROOM7_MULT10_FLR_4 RETURN AIR NODE NAME,Air,1
 Node,430,PATROOM8_FLR_3 AIR NODE,Air,0
 Node,431,PATROOM8_FLR_3 RETURN AIR NODE NAME,Air,1
 Node,432,PATROOM8_FLR_4 AIR NODE,Air,0
 Node,433,PATROOM8_FLR_4 RETURN AIR NODE NAME,Air,1
 Node,434,PHYSTHERAPY_FLR_3 AIR NODE,Air,0
 Node,435,PHYSTHERAPY_FLR_3 RETURN AIR NODE NAME,Air,1
 Node,436,RADIOLOGY_FLR_4 AIR NODE,Air,0
 Node,437,RADIOLOGY_FLR_4 RETURN AIR NODE NAME,Air,1
 Node,438,CAV_1 ZONE EQUIPMENT INLET NODE,Air,2
 Node,439,CAV_2 ZONE EQUIPMENT INLET NODE,Air,2
 Node,440,VAV_1 ZONE EQUIPMENT INLET NODE,Air,2
 Node,441,VAV_2 ZONE EQUIPMENT INLET NODE,Air,2
 Node,442,CAV_1 ZONE EQUIPMENT OUTLET NODE,Air,2
 Node,443,CAV_2 ZONE EQUIPMENT OUTLET NODE,Air,2
 Node,444,VAV_1 ZONE EQUIPMENT OUTLET NODE,Air,2
 Node,445,VAV_2 ZONE EQUIPMENT OUTLET NODE,Air,2
 Node,446,RACK1_CONDENSERINLET,Air,1
 Node,447,TOWERWATERSYS COOLTOWER OA REF NODE,Air,1
 Node,448,RACK2_CONDENSERINLET,Air,1
 Node,449,ER_EXAM1_MULT4_FLR_1 VAV BOX INLET NODE NAME,Air,1
 Node,450,ER_TRAUMA1_FLR_1 VAV BOX INLET NODE NAME,Air,1
 Node,451,ER_EXAM3_MULT4_FLR_1 VAV BOX INLET NODE NAME,Air,1
 Node,452,ER_TRAUMA2_FLR_1 VAV BOX INLET NODE NAME,Air,1
 Node,453,ER_TRIAGE_MULT4_FLR_1 VAV BOX INLET NODE NAME,Air,1
 Node,454,IC_PATROOM1_MULT5_FLR_2 VAV BOX INLET NODE NAME,Air,1
 Node,455,PATROOM1_MULT10_FLR_3 VAV BOX INLET NODE NAME,Air,1
 Node,456,PATROOM5_MULT10_FLR_3 VAV BOX INLET NODE NAME,Air,1
 Node,457,PATROOM7_MULT10_FLR_3 VAV BOX INLET NODE NAME,Air,1
 Node,458,PATROOM3_MULT10_FLR_4 VAV BOX INLET NODE NAME,Air,1
 Node,459,PATROOM5_MULT10_FLR_4 VAV BOX INLET NODE NAME,Air,1
 Node,460,PATROOM6_FLR_4 VAV BOX INLET NODE NAME,Air,1
 Node,461,PATROOM7_MULT10_FLR_4 VAV BOX INLET NODE NAME,Air,1
 Node,462,OR1_FLR_2 VAV BOX INLET NODE NAME,Air,1
 Node,463,OR2_MULT5_FLR_2 VAV BOX INLET NODE NAME,Air,1
 Node,464,OR3_FLR_2 VAV BOX INLET NODE NAME,Air,1
 Node,465,OR4_FLR_2 VAV BOX INLET NODE NAME,Air,1
 Node,466,IC_PATROOM2_FLR_2 VAV BOX INLET NODE NAME,Air,1
 Node,467,PATROOM2_FLR_3 VAV BOX INLET NODE NAME,Air,1
 Node,468,PATROOM6_FLR_3 VAV BOX INLET NODE NAME,Air,1
 Node,469,PATROOM8_FLR_3 VAV BOX INLET NODE NAME,Air,1
 Node,470,PATROOM4_FLR_4 VAV BOX INLET NODE NAME,Air,1
 Node,471,BASEMENT VAV BOX INLET NODE NAME,Air,1
 Node,472,OFFICE1_MULT4_FLR_1 VAV BOX INLET NODE NAME,Air,1
 Node,473,LOBBY_RECORDS_FLR_1 VAV BOX INLET NODE NAME,Air,1
 Node,474,CORRIDOR_FLR_1 VAV BOX INLET NODE NAME,Air,1
 Node,475,ER_NURSESTN_LOBBY_FLR_1 VAV BOX INLET NODE NAME,Air,1
 Node,476,IC_PATROOM3_MULT6_FLR_2 VAV BOX INLET NODE NAME,Air,1
 Node,477,ICU_NURSESTN_LOBBY_FLR_2 VAV BOX INLET NODE NAME,Air,1
 Node,478,CORRIDOR_FLR_2 VAV BOX INLET NODE NAME,Air,1
 Node,479,OR_NURSESTN_LOBBY_FLR_2 VAV BOX INLET NODE NAME,Air,1
 Node,480,PATROOM3_MULT10_FLR_3 VAV BOX INLET NODE NAME,Air,1
 Node,481,LAB_FLR_3 VAV BOX INLET NODE NAME,Air,1
 Node,482,PATROOM1_MULT10_FLR_4 VAV BOX INLET NODE NAME,Air,1
 Node,483,PATROOM8_FLR_4 VAV BOX INLET NODE NAME,Air,1
 Node,484,ICU_FLR_2 VAV BOX INLET NODE NAME,Air,1
 Node,485,PATROOM4_FLR_3 VAV BOX INLET NODE NAME,Air,1
 Node,486,PHYSTHERAPY_FLR_3 VAV BOX INLET NODE NAME,Air,1
 Node,487,NURSESTN_LOBBY_FLR_3 VAV BOX INLET NODE NAME,Air,1
 Node,488,CORRIDOR_SE_FLR_3 VAV BOX INLET NODE NAME,Air,1
 Node,489,CORRIDOR_NW_FLR_3 VAV BOX INLET NODE NAME,Air,1
 Node,490,PATROOM2_FLR_4 VAV BOX INLET NODE NAME,Air,1
 Node,491,RADIOLOGY_FLR_4 VAV BOX INLET NODE NAME,Air,1
 Node,492,NURSESTN_LOBBY_FLR_4 VAV BOX INLET NODE NAME,Air,1
 Node,493,LAB_FLR_4 VAV BOX INLET NODE NAME,Air,1
 Node,494,CORRIDOR_SE_FLR_4 VAV BOX INLET NODE NAME,Air,1
 Node,495,CORRIDOR_NW_FLR_4 VAV BOX INLET NODE NAME,Air,1
 Node,496,DINING_FLR_5 VAV BOX INLET NODE NAME,Air,1
 Node,497,NURSESTN_LOBBY_FLR_5 VAV BOX INLET NODE NAME,Air,1
 Node,498,KITCHEN_FLR_5 VAV BOX INLET NODE NAME,Air,1
 Node,499,OFFICE1_FLR_5 VAV BOX INLET NODE NAME,Air,1
 Node,500,OFFICE2_MULT5_FLR_5 VAV BOX INLET NODE NAME,Air,1
 Node,501,OFFICE3_FLR_5 VAV BOX INLET NODE NAME,Air,1
 Node,502,OFFICE4_MULT6_FLR_5 VAV BOX INLET NODE NAME,Air,1
 Node,503,CORRIDOR_FLR_5 VAV BOX INLET NODE NAME,Air,1
 Node,504,BASEMENT VAV BOX DAMPER NODE,Air,1
 Node,505,CORRIDOR_FLR_1 VAV BOX DAMPER NODE,Air,1
 Node,506,CORRIDOR_FLR_2 VAV BOX DAMPER NODE,Air,1
 Node,507,CORRIDOR_FLR_5 VAV BOX DAMPER NODE,Air,1
 Node,508,CORRIDOR_NW_FLR_3 VAV BOX DAMPER NODE,Air,1
 Node,509,CORRIDOR_NW_FLR_4 VAV BOX DAMPER NODE,Air,1
 Node,510,CORRIDOR_SE_FLR_3 VAV BOX DAMPER NODE,Air,1
 Node,511,CORRIDOR_SE_FLR_4 VAV BOX DAMPER NODE,Air,1
 Node,512,DINING_FLR_5 VAV BOX DAMPER NODE,Air,1
 Node,513,ER_EXAM1_MULT4_FLR_1 VAV BOX DAMPER NODE,Air,1
 Node,514,ER_EXAM3_MULT4_FLR_1 VAV BOX DAMPER NODE,Air,1
 Node,515,ER_NURSESTN_LOBBY_FLR_1 VAV BOX DAMPER NODE,Air,1
 Node,516,ER_TRAUMA1_FLR_1 VAV BOX DAMPER NODE,Air,1
 Node,517,ER_TRAUMA2_FLR_1 VAV BOX DAMPER NODE,Air,1
 Node,518,ER_TRIAGE_MULT4_FLR_1 VAV BOX DAMPER NODE,Air,1
 Node,519,ICU_FLR_2 VAV BOX DAMPER NODE,Air,1
 Node,520,ICU_NURSESTN_LOBBY_FLR_2 VAV BOX DAMPER NODE,Air,1
 Node,521,IC_PATROOM1_MULT5_FLR_2 VAV BOX DAMPER NODE,Air,1
 Node,522,IC_PATROOM2_FLR_2 VAV BOX DAMPER NODE,Air,1
 Node,523,IC_PATROOM3_MULT6_FLR_2 VAV BOX DAMPER NODE,Air,1
 Node,524,KITCHEN_FLR_5 VAV BOX DAMPER NODE,Air,1
 Node,525,LAB_FLR_3 VAV BOX DAMPER NODE,Air,1
 Node,526,LAB_FLR_4 VAV BOX DAMPER NODE,Air,1
 Node,527,LOBBY_RECORDS_FLR_1 VAV BOX DAMPER NODE,Air,1
 Node,528,NURSESTN_LOBBY_FLR_3 VAV BOX DAMPER NODE,Air,1
 Node,529,NURSESTN_LOBBY_FLR_4 VAV BOX DAMPER NODE,Air,1
 Node,530,NURSESTN_LOBBY_FLR_5 VAV BOX DAMPER NODE,Air,1
 Node,531,OR1_FLR_2 VAV BOX DAMPER NODE,Air,1
 Node,532,OR2_MULT5_FLR_2 VAV BOX DAMPER NODE,Air,1
 Node,533,OR3_FLR_2 VAV BOX DAMPER NODE,Air,1
 Node,534,OR4_FLR_2 VAV BOX DAMPER NODE,Air,1
 Node,535,OR_NURSESTN_LOBBY_FLR_2 VAV BOX DAMPER NODE,Air,1
 Node,536,OFFICE1_FLR_5 VAV BOX DAMPER NODE,Air,1
 Node,537,OFFICE1_MULT4_FLR_1 VAV BOX DAMPER NODE,Air,1
 Node,538,OFFICE2_MULT5_FLR_5 VAV BOX DAMPER NODE,Air,1
 Node,539,OFFICE3_FLR_5 VAV BOX DAMPER NODE,Air,1
 Node,540,OFFICE4_MULT6_FLR_5 VAV BOX DAMPER NODE,Air,1
 Node,541,PATROOM1_MULT10_FLR_3 VAV BOX DAMPER NODE,Air,1
 Node,542,PATROOM1_MULT10_FLR_4 VAV BOX DAMPER NODE,Air,1
 Node,543,PATROOM2_FLR_3 VAV BOX DAMPER NODE,Air,1
 Node,544,PATROOM2_FLR_4 VAV BOX DAMPER NODE,Air,1
 Node,545,PATROOM3_MULT10_FLR_3 VAV BOX DAMPER NODE,Air,1
 Node,546,PATROOM3_MULT10_FLR_4 VAV BOX DAMPER NODE,Air,1
 Node,547,PATROOM4_FLR_3 VAV BOX DAMPER NODE,Air,1
 Node,548,PATROOM4_FLR_4 VAV BOX DAMPER NODE,Air,1
 Node,549,PATROOM5_MULT10_FLR_3 VAV BOX DAMPER NODE,Air,1
 Node,550,PATROOM5_MULT10_FLR_4 VAV BOX DAMPER NODE,Air,1
 Node,551,PATROOM6_FLR_3 VAV BOX DAMPER NODE,Air,1
 Node,552,PATROOM6_FLR_4 VAV BOX DAMPER NODE,Air,1
 Node,553,PATROOM7_MULT10_FLR_3 VAV BOX DAMPER NODE,Air,1
 Node,554,PATROOM7_MULT10_FLR_4 VAV BOX DAMPER NODE,Air,1
 Node,555,PATROOM8_FLR_3 VAV BOX DAMPER NODE,Air,1
 Node,556,PATROOM8_FLR_4 VAV BOX DAMPER NODE,Air,1
 Node,557,PHYSTHERAPY_FLR_3 VAV BOX DAMPER NODE,Air,1
 Node,558,RADIOLOGY_FLR_4 VAV BOX DAMPER NODE,Air,1
 Node,559,DINING_FLR_5 EXHAUST FAN OUTLET NODE NAME,Air,0
 Node,560,KITCHEN_FLR_5 EXHAUST FAN OUTLET NODE NAME,Air,0
 Node,561,CAV_1_OARELIEF NODE,Air,1
 Node,562,CAV_2_OARELIEF NODE,Air,1
 Node,563,VAV_1_OARELIEF NODE,Air,1
 Node,564,VAV_2_OARELIEF NODE,Air,1
! ===============================================================
! Suspicious nodes have 0 references.  It is normal for some nodes, however.
! Listing nodes with 0 references (culled from previous list):
! <Suspicious Node>,<NodeNumber>,<Node Name>,<Node Fluid Type>,<# Times Node Referenced After Definition>
 Suspicious Node,328,BASEMENT AIR NODE,Air,0
 Suspicious Node,330,CORRIDOR_FLR_1 AIR NODE,Air,0
 Suspicious Node,332,CORRIDOR_FLR_2 AIR NODE,Air,0
 Suspicious Node,334,CORRIDOR_FLR_5 AIR NODE,Air,0
 Suspicious Node,336,CORRIDOR_NW_FLR_3 AIR NODE,Air,0
 Suspicious Node,338,CORRIDOR_NW_FLR_4 AIR NODE,Air,0
 Suspicious Node,340,CORRIDOR_SE_FLR_3 AIR NODE,Air,0
 Suspicious Node,342,CORRIDOR_SE_FLR_4 AIR NODE,Air,0
 Suspicious Node,344,DINING_FLR_5 AIR NODE,Air,0
 Suspicious Node,346,ER_EXAM1_MULT4_FLR_1 AIR NODE,Air,0
 Suspicious Node,350,ER_NURSESTN_LOBBY_FLR_1 AIR NODE,Air,0
 Suspicious Node,352,ER_TRAUMA1_FLR_1 AIR NODE,Air,0
 Suspicious Node,354,ER_TRAUMA2_FLR_1 AIR NODE,Air,0
 Suspicious Node,356,ER_TRIAGE_MULT4_FLR_1 AIR NODE,Air,0
 Suspicious Node,358,ICU_FLR_2 AIR NODE,Air,0
 Suspicious Node,360,ICU_NURSESTN_LOBBY_FLR_2 AIR NODE,Air,0
 Suspicious Node,362,IC_PATROOM1_MULT5_FLR_2 AIR NODE,Air,0
 Suspicious Node,364,IC_PATROOM2_FLR_2 AIR NODE,Air,0
 Suspicious Node,366,IC_PATROOM3_MULT6_FLR_2 AIR NODE,Air,0
 Suspicious Node,368,KITCHEN_FLR_5 AIR NODE,Air,0
 Suspicious Node,370,LAB_FLR_3 AIR NODE,Air,0
 Suspicious Node,372,LAB_FLR_4 AIR NODE,Air,0
 Suspicious Node,374,LOBBY_RECORDS_FLR_1 AIR NODE,Air,0
 Suspicious Node,376,NURSESTN_LOBBY_FLR_3 AIR NODE,Air,0
 Suspicious Node,378,NURSESTN_LOBBY_FLR_4 AIR NODE,Air,0
 Suspicious Node,380,NURSESTN_LOBBY_FLR_5 AIR NODE,Air,0
 Suspicious Node,382,OR1_FLR_2 AIR NODE,Air,0
 Suspicious Node,386,OR3_FLR_2 AIR NODE,Air,0
 Suspicious Node,388,OR4_FLR_2 AIR NODE,Air,0
 Suspicious Node,390,OR_NURSESTN_LOBBY_FLR_2 AIR NODE,Air,0
 Suspicious Node,392,OFFICE1_FLR_5 AIR NODE,Air,0
 Suspicious Node,394,OFFICE1_MULT4_FLR_1 AIR NODE,Air,0
 Suspicious Node,396,OFFICE2_MULT5_FLR_5 AIR NODE,Air,0
 Suspicious Node,398,OFFICE3_FLR_5 AIR NODE,Air,0
 Suspicious Node,400,OFFICE4_MULT6_FLR_5 AIR NODE,Air,0
 Suspicious Node,402,PATROOM1_MULT10_FLR_3 AIR NODE,Air,0
 Suspicious Node,404,PATROOM1_MULT10_FLR_4 AIR NODE,Air,0
 Suspicious Node,406,PATROOM2_FLR_3 AIR NODE,Air,0
 Suspicious Node,408,PATROOM2_FLR_4 AIR NODE,Air,0
 Suspicious Node,410,PATROOM3_MULT10_FLR_3 AIR NODE,Air,0
 Suspicious Node,412,PATROOM3_MULT10_FLR_4 AIR NODE,Air,0
 Suspicious Node,414,PATROOM4_FLR_3 AIR NODE,Air,0
 Suspicious Node,416,PATROOM4_FLR_4 AIR NODE,Air,0
 Suspicious Node,418,PATROOM5_MULT10_FLR_3 AIR NODE,Air,0
 Suspicious Node,420,PATROOM5_MULT10_FLR_4 AIR NODE,Air,0
 Suspicious Node,422,PATROOM6_FLR_3 AIR NODE,Air,0
 Suspicious Node,424,PATROOM6_FLR_4 AIR NODE,Air,0
 Suspicious Node,426,PATROOM7_MULT10_FLR_3 AIR NODE,Air,0
 Suspicious Node,428,PATROOM7_MULT10_FLR_4 AIR NODE,Air,0
 Suspicious Node,430,PATROOM8_FLR_3 AIR NODE,Air,0
 Suspicious Node,432,PATROOM8_FLR_4 AIR NODE,Air,0
 Suspicious Node,434,PHYSTHERAPY_FLR_3 AIR NODE,Air,0
 Suspicious Node,436,RADIOLOGY_FLR_4 AIR NODE,Air,0
 Suspicious Node,559,DINING_FLR_5 EXHAUST FAN OUTLET NODE NAME,Air,0
 Suspicious Node,560,KITCHEN_FLR_5 EXHAUST FAN OUTLET NODE NAME,Air,0
! ===============================================================
! <#Branch Lists>,<Number of Branch Lists>
 #Branch Lists,12
! <Branch List>,<Branch List Count>,<Branch List Name>,<Loop Name>,<Loop Type>,<Number of Branches>
! <Branch>,<Branch Count>,<Branch Name>,<Loop Name>,<Loop Type>,<Branch Inlet Node Name>,<Branch Outlet Node Name>
 Branch List,1,CAV_1 AIR LOOP BRANCHES,CAV_1,Air,1
   Branch,1,CAV_1 AIR LOOP MAIN BRANCH,CAV_1,Air,CAV_1 SUPPLY EQUIPMENT INLET NODE,CAV_1 SUPPLY EQUIPMENT OUTLET NODE
 Branch List,2,CAV_2 AIR LOOP BRANCHES,CAV_2,Air,1
   Branch,1,CAV_2 AIR LOOP MAIN BRANCH,CAV_2,Air,CAV_2 SUPPLY EQUIPMENT INLET NODE,CAV_2 SUPPLY EQUIPMENT OUTLET NODE
 Branch List,3,VAV_1 AIR LOOP BRANCHES,VAV_1,Air,1
   Branch,1,VAV_1 AIR LOOP MAIN BRANCH,VAV_1,Air,VAV_1 SUPPLY EQUIPMENT INLET NODE,VAV_1 SUPPLY EQUIPMENT OUTLET NODE
 Branch List,4,VAV_2 AIR LOOP BRANCHES,VAV_2,Air,1
   Branch,1,VAV_2 AIR LOOP MAIN BRANCH,VAV_2,Air,VAV_2 SUPPLY EQUIPMENT INLET NODE,VAV_2 SUPPLY EQUIPMENT OUTLET NODE
 Branch List,5,COOLSYS1 DEMAND BRANCHES,COOLSYS1,Plant Demand,7
   Branch,1,COOLSYS1 DEMAND INLET BRANCH,COOLSYS1,Plant Demand,COOLSYS1 DEMAND INLET NODE,COOLSYS1 DEMAND INLET PIPE-COOLSYS1 DEMAND MIXER
   Branch,2,COOLSYS1 DEMAND LOAD BRANCH 1,COOLSYS1,Plant Demand,VAV_1_COOLCDEMAND INLET NODE,VAV_1_COOLCDEMAND OUTLET NODE
   Branch,3,COOLSYS1 DEMAND LOAD BRANCH 2,COOLSYS1,Plant Demand,CAV_1_COOLCDEMAND INLET NODE,CAV_1_COOLCDEMAND OUTLET NODE
   Branch,4,COOLSYS1 DEMAND LOAD BRANCH 3,COOLSYS1,Plant Demand,CAV_2_COOLCDEMAND INLET NODE,CAV_2_COOLCDEMAND OUTLET NODE
   Branch,5,COOLSYS1 DEMAND LOAD BRANCH 4,COOLSYS1,Plant Demand,VAV_2_COOLCDEMAND INLET NODE,VAV_2_COOLCDEMAND OUTLET NODE
   Branch,6,COOLSYS1 DEMAND BYPASS BRANCH,COOLSYS1,Plant Demand,COOLSYS1 DEMAND BYPASS PIPE INLET NODE,COOLSYS1 DEMAND BYPASS PIPE OUTLET NODE
   Branch,7,COOLSYS1 DEMAND OUTLET BRANCH,COOLSYS1,Plant Demand,COOLSYS1 DEMAND MIXER-COOLSYS1 DEMAND OUTLET PIPE,COOLSYS1 DEMAND OUTLET NODE
 Branch List,6,COOLSYS1 SUPPLY BRANCHES,COOLSYS1,Plant Supply,4
   Branch,1,COOLSYS1 SUPPLY INLET BRANCH,COOLSYS1,Plant Supply,COOLSYS1 SUPPLY INLET NODE,COOLSYS1 PUMP-COOLSYS1 CHILLERNODEVIACONNECTOR
   Branch,2,COOLSYS1 SUPPLY EQUIPMENT BRANCH,COOLSYS1,Plant Supply,COOLSYS1 PUMP-COOLSYS1 CHILLERNODE,COOLSYS1 SUPPLY EQUIPMENT OUTLET NODE
   Branch,3,COOLSYS1 SUPPLY EQUIPMENT BYPASS BRANCH,COOLSYS1,Plant Supply,COOLSYS1 SUPPLY EQUIP BYPASS INLET NODE,COOLSYS1 SUPPLY EQUIP BYPASS OUTLET NODE
   Branch,4,COOLSYS1 SUPPLY OUTLET BRANCH,COOLSYS1,Plant Supply,COOLSYS1 SUPPLY MIXER-COOLSYS1 SUPPLY OUTLET PIPE,COOLSYS1 SUPPLY OUTLET NODE
 Branch List,7,HEATSYS1 DEMAND BRANCHES,HEATSYS1,Plant Demand,62
   Branch,1,HEATSYS1 DEMAND INLET BRANCH,HEATSYS1,Plant Demand,HEATSYS1 DEMAND INLET NODE,HEATSYS1 DEMAND INLET PIPE-HEATSYS1 DEMAND MIXER
   Branch,2,HEATSYS1 DEMAND LOAD BRANCH 1,HEATSYS1,Plant Demand,BASEMENT VAV BOX REHEAT COILDEMAND INLET NODE,BASEMENT VAV BOX REHEAT COILDEMAND OUTLET NODE
   Branch,3,HEATSYS1 DEMAND LOAD BRANCH 2,HEATSYS1,Plant Demand,ER_EXAM1_MULT4_FLR_1 VAV BOX REHEAT COILDEMAND INLET NODE,ER_EXAM1_MULT4_FLR_1 VAV BOX REHEAT COILDEMAND OUTLET NODE
   Branch,4,HEATSYS1 DEMAND LOAD BRANCH 3,HEATSYS1,Plant Demand,ER_TRAUMA1_FLR_1 VAV BOX REHEAT COILDEMAND INLET NODE,ER_TRAUMA1_FLR_1 VAV BOX REHEAT COILDEMAND OUTLET NODE
   Branch,5,HEATSYS1 DEMAND LOAD BRANCH 4,HEATSYS1,Plant Demand,ER_EXAM3_MULT4_FLR_1 VAV BOX REHEAT COILDEMAND INLET NODE,ER_EXAM3_MULT4_FLR_1 VAV BOX REHEAT COILDEMAND OUTLET NODE
   Branch,6,HEATSYS1 DEMAND LOAD BRANCH 5,HEATSYS1,Plant Demand,ER_TRAUMA2_FLR_1 VAV BOX REHEAT COILDEMAND INLET NODE,ER_TRAUMA2_FLR_1 VAV BOX REHEAT COILDEMAND OUTLET NODE
   Branch,7,HEATSYS1 DEMAND LOAD BRANCH 6,HEATSYS1,Plant Demand,ER_TRIAGE_MULT4_FLR_1 VAV BOX REHEAT COILDEMAND INLET NODE,ER_TRIAGE_MULT4_FLR_1 VAV BOX REHEAT COILDEMAND OUTLET NODE
   Branch,8,HEATSYS1 DEMAND LOAD BRANCH 7,HEATSYS1,Plant Demand,OFFICE1_MULT4_FLR_1 VAV BOX REHEAT COILDEMAND INLET NODE,OFFICE1_MULT4_FLR_1 VAV BOX REHEAT COILDEMAND OUTLET NODE
   Branch,9,HEATSYS1 DEMAND LOAD BRANCH 8,HEATSYS1,Plant Demand,LOBBY_RECORDS_FLR_1 VAV BOX REHEAT COILDEMAND INLET NODE,LOBBY_RECORDS_FLR_1 VAV BOX REHEAT COILDEMAND OUTLET NODE
   Branch,10,HEATSYS1 DEMAND LOAD BRANCH 9,HEATSYS1,Plant Demand,CORRIDOR_FLR_1 VAV BOX REHEAT COILDEMAND INLET NODE,CORRIDOR_FLR_1 VAV BOX REHEAT COILDEMAND OUTLET NODE
   Branch,11,HEATSYS1 DEMAND LOAD BRANCH 10,HEATSYS1,Plant Demand,ER_NURSESTN_LOBBY_FLR_1 VAV BOX REHEAT COILDEMAND INLET NODE,ER_NURSESTN_LOBBY_FLR_1 VAV BOX REHEAT COILDEMAND OUTLET NODE
   Branch,12,HEATSYS1 DEMAND LOAD BRANCH 11,HEATSYS1,Plant Demand,OR1_FLR_2 VAV BOX REHEAT COILDEMAND INLET NODE,OR1_FLR_2 VAV BOX REHEAT COILDEMAND OUTLET NODE
   Branch,13,HEATSYS1 DEMAND LOAD BRANCH 12,HEATSYS1,Plant Demand,OR2_MULT5_FLR_2 VAV BOX REHEAT COILDEMAND INLET NODE,OR2_MULT5_FLR_2 VAV BOX REHEAT COILDEMAND OUTLET NODE
   Branch,14,HEATSYS1 DEMAND LOAD BRANCH 13,HEATSYS1,Plant Demand,OR3_FLR_2 VAV BOX REHEAT COILDEMAND INLET NODE,OR3_FLR_2 VAV BOX REHEAT COILDEMAND OUTLET NODE
   Branch,15,HEATSYS1 DEMAND LOAD BRANCH 14,HEATSYS1,Plant Demand,OR4_FLR_2 VAV BOX REHEAT COILDEMAND INLET NODE,OR4_FLR_2 VAV BOX REHEAT COILDEMAND OUTLET NODE
   Branch,16,HEATSYS1 DEMAND LOAD BRANCH 15,HEATSYS1,Plant Demand,IC_PATROOM1_MULT5_FLR_2 VAV BOX REHEAT COILDEMAND INLET NODE,IC_PATROOM1_MULT5_FLR_2 VAV BOX REHEAT COILDEMAND OUTLET NODE
   Branch,17,HEATSYS1 DEMAND LOAD BRANCH 16,HEATSYS1,Plant Demand,IC_PATROOM2_FLR_2 VAV BOX REHEAT COILDEMAND INLET NODE,IC_PATROOM2_FLR_2 VAV BOX REHEAT COILDEMAND OUTLET NODE
   Branch,18,HEATSYS1 DEMAND LOAD BRANCH 17,HEATSYS1,Plant Demand,IC_PATROOM3_MULT6_FLR_2 VAV BOX REHEAT COILDEMAND INLET NODE,IC_PATROOM3_MULT6_FLR_2 VAV BOX REHEAT COILDEMAND OUTLET NODE
   Branch,19,HEATSYS1 DEMAND LOAD BRANCH 18,HEATSYS1,Plant Demand,ICU_FLR_2 VAV BOX REHEAT COILDEMAND INLET NODE,ICU_FLR_2 VAV BOX REHEAT COILDEMAND OUTLET NODE
   Branch,20,HEATSYS1 DEMAND LOAD BRANCH 19,HEATSYS1,Plant Demand,ICU_NURSESTN_LOBBY_FLR_2 VAV BOX REHEAT COILDEMAND INLET NODE,ICU_NURSESTN_LOBBY_FLR_2 VAV BOX REHEAT COILDEMAND OUTLET NODE
   Branch,21,HEATSYS1 DEMAND LOAD BRANCH 20,HEATSYS1,Plant Demand,CORRIDOR_FLR_2 VAV BOX REHEAT COILDEMAND INLET NODE,CORRIDOR_FLR_2 VAV BOX REHEAT COILDEMAND OUTLET NODE
   Branch,22,HEATSYS1 DEMAND LOAD BRANCH 21,HEATSYS1,Plant Demand,OR_NURSESTN_LOBBY_FLR_2 VAV BOX REHEAT COILDEMAND INLET NODE,OR_NURSESTN_LOBBY_FLR_2 VAV BOX REHEAT COILDEMAND OUTLET NODE
   Branch,23,HEATSYS1 DEMAND LOAD BRANCH 22,HEATSYS1,Plant Demand,PATROOM1_MULT10_FLR_3 VAV BOX REHEAT COILDEMAND INLET NODE,PATROOM1_MULT10_FLR_3 VAV BOX REHEAT COILDEMAND OUTLET NODE
   Branch,24,HEATSYS1 DEMAND LOAD BRANCH 23,HEATSYS1,Plant Demand,PATROOM2_FLR_3 VAV BOX REHEAT COILDEMAND INLET NODE,PATROOM2_FLR_3 VAV BOX REHEAT COILDEMAND OUTLET NODE
   Branch,25,HEATSYS1 DEMAND LOAD BRANCH 24,HEATSYS1,Plant Demand,PATROOM3_MULT10_FLR_3 VAV BOX REHEAT COILDEMAND INLET NODE,PATROOM3_MULT10_FLR_3 VAV BOX REHEAT COILDEMAND OUTLET NODE
   Branch,26,HEATSYS1 DEMAND LOAD BRANCH 25,HEATSYS1,Plant Demand,PATROOM4_FLR_3 VAV BOX REHEAT COILDEMAND INLET NODE,PATROOM4_FLR_3 VAV BOX REHEAT COILDEMAND OUTLET NODE
   Branch,27,HEATSYS1 DEMAND LOAD BRANCH 26,HEATSYS1,Plant Demand,PATROOM5_MULT10_FLR_3 VAV BOX REHEAT COILDEMAND INLET NODE,PATROOM5_MULT10_FLR_3 VAV BOX REHEAT COILDEMAND OUTLET NODE
   Branch,28,HEATSYS1 DEMAND LOAD BRANCH 27,HEATSYS1,Plant Demand,PHYSTHERAPY_FLR_3 VAV BOX REHEAT COILDEMAND INLET NODE,PHYSTHERAPY_FLR_3 VAV BOX REHEAT COILDEMAND OUTLET NODE
   Branch,29,HEATSYS1 DEMAND LOAD BRANCH 28,HEATSYS1,Plant Demand,PATROOM6_FLR_3 VAV BOX REHEAT COILDEMAND INLET NODE,PATROOM6_FLR_3 VAV BOX REHEAT COILDEMAND OUTLET NODE
   Branch,30,HEATSYS1 DEMAND LOAD BRANCH 29,HEATSYS1,Plant Demand,PATROOM7_MULT10_FLR_3 VAV BOX REHEAT COILDEMAND INLET NODE,PATROOM7_MULT10_FLR_3 VAV BOX REHEAT COILDEMAND OUTLET NODE
   Branch,31,HEATSYS1 DEMAND LOAD BRANCH 30,HEATSYS1,Plant Demand,PATROOM8_FLR_3 VAV BOX REHEAT COILDEMAND INLET NODE,PATROOM8_FLR_3 VAV BOX REHEAT COILDEMAND OUTLET NODE
   Branch,32,HEATSYS1 DEMAND LOAD BRANCH 31,HEATSYS1,Plant Demand,NURSESTN_LOBBY_FLR_3 VAV BOX REHEAT COILDEMAND INLET NODE,NURSESTN_LOBBY_FLR_3 VAV BOX REHEAT COILDEMAND OUTLET NODE
   Branch,33,HEATSYS1 DEMAND LOAD BRANCH 32,HEATSYS1,Plant Demand,LAB_FLR_3 VAV BOX REHEAT COILDEMAND INLET NODE,LAB_FLR_3 VAV BOX REHEAT COILDEMAND OUTLET NODE
   Branch,34,HEATSYS1 DEMAND LOAD BRANCH 33,HEATSYS1,Plant Demand,CORRIDOR_SE_FLR_3 VAV BOX REHEAT COILDEMAND INLET NODE,CORRIDOR_SE_FLR_3 VAV BOX REHEAT COILDEMAND OUTLET NODE
   Branch,35,HEATSYS1 DEMAND LOAD BRANCH 34,HEATSYS1,Plant Demand,CORRIDOR_NW_FLR_3 VAV BOX REHEAT COILDEMAND INLET NODE,CORRIDOR_NW_FLR_3 VAV BOX REHEAT COILDEMAND OUTLET NODE
   Branch,36,HEATSYS1 DEMAND LOAD BRANCH 35,HEATSYS1,Plant Demand,PATROOM1_MULT10_FLR_4 VAV BOX REHEAT COILDEMAND INLET NODE,PATROOM1_MULT10_FLR_4 VAV BOX REHEAT COILDEMAND OUTLET NODE
   Branch,37,HEATSYS1 DEMAND LOAD BRANCH 36,HEATSYS1,Plant Demand,PATROOM2_FLR_4 VAV BOX REHEAT COILDEMAND INLET NODE,PATROOM2_FLR_4 VAV BOX REHEAT COILDEMAND OUTLET NODE
   Branch,38,HEATSYS1 DEMAND LOAD BRANCH 37,HEATSYS1,Plant Demand,PATROOM3_MULT10_FLR_4 VAV BOX REHEAT COILDEMAND INLET NODE,PATROOM3_MULT10_FLR_4 VAV BOX REHEAT COILDEMAND OUTLET NODE
   Branch,39,HEATSYS1 DEMAND LOAD BRANCH 38,HEATSYS1,Plant Demand,PATROOM4_FLR_4 VAV BOX REHEAT COILDEMAND INLET NODE,PATROOM4_FLR_4 VAV BOX REHEAT COILDEMAND OUTLET NODE
   Branch,40,HEATSYS1 DEMAND LOAD BRANCH 39,HEATSYS1,Plant Demand,PATROOM5_MULT10_FLR_4 VAV BOX REHEAT COILDEMAND INLET NODE,PATROOM5_MULT10_FLR_4 VAV BOX REHEAT COILDEMAND OUTLET NODE
   Branch,41,HEATSYS1 DEMAND LOAD BRANCH 40,HEATSYS1,Plant Demand,RADIOLOGY_FLR_4 VAV BOX REHEAT COILDEMAND INLET NODE,RADIOLOGY_FLR_4 VAV BOX REHEAT COILDEMAND OUTLET NODE
   Branch,42,HEATSYS1 DEMAND LOAD BRANCH 41,HEATSYS1,Plant Demand,PATROOM6_FLR_4 VAV BOX REHEAT COILDEMAND INLET NODE,PATROOM6_FLR_4 VAV BOX REHEAT COILDEMAND OUTLET NODE
   Branch,43,HEATSYS1 DEMAND LOAD BRANCH 42,HEATSYS1,Plant Demand,PATROOM7_MULT10_FLR_4 VAV BOX REHEAT COILDEMAND INLET NODE,PATROOM7_MULT10_FLR_4 VAV BOX REHEAT COILDEMAND OUTLET NODE
   Branch,44,HEATSYS1 DEMAND LOAD BRANCH 43,HEATSYS1,Plant Demand,PATROOM8_FLR_4 VAV BOX REHEAT COILDEMAND INLET NODE,PATROOM8_FLR_4 VAV BOX REHEAT COILDEMAND OUTLET NODE
   Branch,45,HEATSYS1 DEMAND LOAD BRANCH 44,HEATSYS1,Plant Demand,NURSESTN_LOBBY_FLR_4 VAV BOX REHEAT COILDEMAND INLET NODE,NURSESTN_LOBBY_FLR_4 VAV BOX REHEAT COILDEMAND OUTLET NODE
   Branch,46,HEATSYS1 DEMAND LOAD BRANCH 45,HEATSYS1,Plant Demand,LAB_FLR_4 VAV BOX REHEAT COILDEMAND INLET NODE,LAB_FLR_4 VAV BOX REHEAT COILDEMAND OUTLET NODE
   Branch,47,HEATSYS1 DEMAND LOAD BRANCH 46,HEATSYS1,Plant Demand,CORRIDOR_SE_FLR_4 VAV BOX REHEAT COILDEMAND INLET NODE,CORRIDOR_SE_FLR_4 VAV BOX REHEAT COILDEMAND OUTLET NODE
   Branch,48,HEATSYS1 DEMAND LOAD BRANCH 47,HEATSYS1,Plant Demand,CORRIDOR_NW_FLR_4 VAV BOX REHEAT COILDEMAND INLET NODE,CORRIDOR_NW_FLR_4 VAV BOX REHEAT COILDEMAND OUTLET NODE
   Branch,49,HEATSYS1 DEMAND LOAD BRANCH 48,HEATSYS1,Plant Demand,DINING_FLR_5 VAV BOX REHEAT COILDEMAND INLET NODE,DINING_FLR_5 VAV BOX REHEAT COILDEMAND OUTLET NODE
   Branch,50,HEATSYS1 DEMAND LOAD BRANCH 49,HEATSYS1,Plant Demand,NURSESTN_LOBBY_FLR_5 VAV BOX REHEAT COILDEMAND INLET NODE,NURSESTN_LOBBY_FLR_5 VAV BOX REHEAT COILDEMAND OUTLET NODE
   Branch,51,HEATSYS1 DEMAND LOAD BRANCH 50,HEATSYS1,Plant Demand,KITCHEN_FLR_5 VAV BOX REHEAT COILDEMAND INLET NODE,KITCHEN_FLR_5 VAV BOX REHEAT COILDEMAND OUTLET NODE
   Branch,52,HEATSYS1 DEMAND LOAD BRANCH 51,HEATSYS1,Plant Demand,OFFICE1_FLR_5 VAV BOX REHEAT COILDEMAND INLET NODE,OFFICE1_FLR_5 VAV BOX REHEAT COILDEMAND OUTLET NODE
   Branch,53,HEATSYS1 DEMAND LOAD BRANCH 52,HEATSYS1,Plant Demand,OFFICE2_MULT5_FLR_5 VAV BOX REHEAT COILDEMAND INLET NODE,OFFICE2_MULT5_FLR_5 VAV BOX REHEAT COILDEMAND OUTLET NODE
   Branch,54,HEATSYS1 DEMAND LOAD BRANCH 53,HEATSYS1,Plant Demand,OFFICE3_FLR_5 VAV BOX REHEAT COILDEMAND INLET NODE,OFFICE3_FLR_5 VAV BOX REHEAT COILDEMAND OUTLET NODE
   Branch,55,HEATSYS1 DEMAND LOAD BRANCH 54,HEATSYS1,Plant Demand,OFFICE4_MULT6_FLR_5 VAV BOX REHEAT COILDEMAND INLET NODE,OFFICE4_MULT6_FLR_5 VAV BOX REHEAT COILDEMAND OUTLET NODE
   Branch,56,HEATSYS1 DEMAND LOAD BRANCH 55,HEATSYS1,Plant Demand,CORRIDOR_FLR_5 VAV BOX REHEAT COILDEMAND INLET NODE,CORRIDOR_FLR_5 VAV BOX REHEAT COILDEMAND OUTLET NODE
   Branch,57,HEATSYS1 DEMAND LOAD BRANCH 56,HEATSYS1,Plant Demand,VAV_1_HEATCDEMAND INLET NODE,VAV_1_HEATCDEMAND OUTLET NODE
   Branch,58,HEATSYS1 DEMAND LOAD BRANCH 57,HEATSYS1,Plant Demand,CAV_1_HEATCDEMAND INLET NODE,CAV_1_HEATCDEMAND OUTLET NODE
   Branch,59,HEATSYS1 DEMAND LOAD BRANCH 58,HEATSYS1,Plant Demand,CAV_2_HEATCDEMAND INLET NODE,CAV_2_HEATCDEMAND OUTLET NODE
   Branch,60,HEATSYS1 DEMAND LOAD BRANCH 59,HEATSYS1,Plant Demand,VAV_2_HEATCDEMAND INLET NODE,VAV_2_HEATCDEMAND OUTLET NODE
   Branch,61,HEATSYS1 DEMAND BYPASS BRANCH,HEATSYS1,Plant Demand,HEATSYS1 DEMAND BYPASS PIPE INLET NODE,HEATSYS1 DEMAND BYPASS PIPE OUTLET NODE
   Branch,62,HEATSYS1 DEMAND OUTLET BRANCH,HEATSYS1,Plant Demand,HEATSYS1 DEMAND MIXER-HEATSYS1 DEMAND OUTLET PIPE,HEATSYS1 DEMAND OUTLET NODE
 Branch List,8,HEATSYS1 SUPPLY BRANCHES,HEATSYS1,Plant Supply,4
   Branch,1,HEATSYS1 SUPPLY INLET BRANCH,HEATSYS1,Plant Supply,HEATSYS1 SUPPLY INLET NODE,HEATSYS1 PUMP-HEATSYS1 BOILERNODEVIACONNECTOR
   Branch,2,HEATSYS1 SUPPLY EQUIPMENT BRANCH,HEATSYS1,Plant Supply,HEATSYS1 PUMP-HEATSYS1 BOILERNODE,HEATSYS1 SUPPLY EQUIPMENT OUTLET NODE
   Branch,3,HEATSYS1 SUPPLY EQUIPMENT BYPASS BRANCH,HEATSYS1,Plant Supply,HEATSYS1 SUPPLY EQUIP BYPASS INLET NODE,HEATSYS1 SUPPLY EQUIP BYPASS OUTLET NODE
   Branch,4,HEATSYS1 SUPPLY OUTLET BRANCH,HEATSYS1,Plant Supply,HEATSYS1 SUPPLY MIXER-HEATSYS1 SUPPLY OUTLET PIPE,HEATSYS1 SUPPLY OUTLET NODE
 Branch List,9,TOWERWATERSYS DEMAND BRANCHES,TOWERWATERSYS,Condenser Demand,4
   Branch,1,TOWERWATERSYS DEMAND INLET BRANCH,TOWERWATERSYS,Condenser Demand,TOWERWATERSYS DEMAND INLET NODE,TOWERWATERSYS DEMAND INLET PIPE-TOWERWATERSYS DEMAND MIXER
   Branch,2,TOWERWATERSYS DEMAND LOAD BRANCH 1,TOWERWATERSYS,Condenser Demand,COOLSYS1 CHILLER WATER INLET NODE,COOLSYS1 CHILLER WATER OUTLET NODE
   Branch,3,TOWERWATERSYS DEMAND BYPASS BRANCH,TOWERWATERSYS,Condenser Demand,TOWERWATERSYS DEMAND BYPASS PIPE INLET NODE,TOWERWATERSYS DEMAND BYPASS PIPE OUTLET NODE
   Branch,4,TOWERWATERSYS DEMAND OUTLET BRANCH,TOWERWATERSYS,Condenser Demand,TOWERWATERSYS DEMAND MIXER-TOWERWATERSYS DEMAND OUTLET PIPE,TOWERWATERSYS DEMAND OUTLET NODE
 Branch List,10,TOWERWATERSYS SUPPLY BRANCHES,TOWERWATERSYS,Condenser Supply,4
   Branch,1,TOWERWATERSYS SUPPLY INLET BRANCH,TOWERWATERSYS,Condenser Supply,TOWERWATERSYS SUPPLY INLET NODE,TOWERWATERSYS PUMP-TOWERWATERSYS COOLTOWERNODEVIACONNECTOR
   Branch,2,TOWERWATERSYS SUPPLY EQUIPMENT BRANCH,TOWERWATERSYS,Condenser Supply,TOWERWATERSYS PUMP-TOWERWATERSYS COOLTOWERNODE,TOWERWATERSYS SUPPLY EQUIPMENT OUTLET NODE
   Branch,3,TOWERWATERSYS SUPPLY EQUIPMENT BYPASS BRANCH,TOWERWATERSYS,Condenser Supply,TOWERWATERSYS SUPPLY EQUIP BYPASS INLET NODE,TOWERWATERSYS SUPPLY EQUIP BYPASS OUTLET NODE
   Branch,4,TOWERWATERSYS SUPPLY OUTLET BRANCH,TOWERWATERSYS,Condenser Supply,TOWERWATERSYS SUPPLY MIXER-TOWERWATERSYS SUPPLY OUTLET PIPE,TOWERWATERSYS SUPPLY OUTLET NODE
 Branch List,11,SWHSYS1 DEMAND BRANCHES,SWHSYS1,Plant Demand,33
   Branch,1,SWHSYS1 DEMAND INLET BRANCH,SWHSYS1,Plant Demand,SWHSYS1 DEMAND INLET NODE,SWHSYS1 DEMAND INLET PIPE-SWHSYS1 DEMAND MIXER
   Branch,2,SWHSYS1 DEMAND LOAD BRANCH 1,SWHSYS1,Plant Demand,ER_EXAM1_MULT4_FLR_1 WATER EQUIPMENT WATER INLET NODE,ER_EXAM1_MULT4_FLR_1 WATER EQUIPMENT WATER OUTLET NODE
   Branch,3,SWHSYS1 DEMAND LOAD BRANCH 2,SWHSYS1,Plant Demand,ER_TRAUMA1_FLR_1 WATER EQUIPMENT WATER INLET NODE,ER_TRAUMA1_FLR_1 WATER EQUIPMENT WATER OUTLET NODE
   Branch,4,SWHSYS1 DEMAND LOAD BRANCH 3,SWHSYS1,Plant Demand,ER_EXAM3_MULT4_FLR_1 WATER EQUIPMENT WATER INLET NODE,ER_EXAM3_MULT4_FLR_1 WATER EQUIPMENT WATER OUTLET NODE
   Branch,5,SWHSYS1 DEMAND LOAD BRANCH 4,SWHSYS1,Plant Demand,ER_TRAUMA2_FLR_1 WATER EQUIPMENT WATER INLET NODE,ER_TRAUMA2_FLR_1 WATER EQUIPMENT WATER OUTLET NODE
   Branch,6,SWHSYS1 DEMAND LOAD BRANCH 5,SWHSYS1,Plant Demand,ER_TRIAGE_MULT4_FLR_1 WATER EQUIPMENT WATER INLET NODE,ER_TRIAGE_MULT4_FLR_1 WATER EQUIPMENT WATER OUTLET NODE
   Branch,7,SWHSYS1 DEMAND LOAD BRANCH 6,SWHSYS1,Plant Demand,OR1_FLR_2 WATER EQUIPMENT WATER INLET NODE,OR1_FLR_2 WATER EQUIPMENT WATER OUTLET NODE
   Branch,8,SWHSYS1 DEMAND LOAD BRANCH 7,SWHSYS1,Plant Demand,OR2_MULT5_FLR_2 WATER EQUIPMENT WATER INLET NODE,OR2_MULT5_FLR_2 WATER EQUIPMENT WATER OUTLET NODE
   Branch,9,SWHSYS1 DEMAND LOAD BRANCH 8,SWHSYS1,Plant Demand,OR3_FLR_2 WATER EQUIPMENT WATER INLET NODE,OR3_FLR_2 WATER EQUIPMENT WATER OUTLET NODE
   Branch,10,SWHSYS1 DEMAND LOAD BRANCH 9,SWHSYS1,Plant Demand,OR4_FLR_2 WATER EQUIPMENT WATER INLET NODE,OR4_FLR_2 WATER EQUIPMENT WATER OUTLET NODE
   Branch,11,SWHSYS1 DEMAND LOAD BRANCH 10,SWHSYS1,Plant Demand,PATROOM1_MULT10_FLR_3 WATER EQUIPMENT WATER INLET NODE,PATROOM1_MULT10_FLR_3 WATER EQUIPMENT WATER OUTLET NODE
   Branch,12,SWHSYS1 DEMAND LOAD BRANCH 11,SWHSYS1,Plant Demand,PATROOM2_FLR_3 WATER EQUIPMENT WATER INLET NODE,PATROOM2_FLR_3 WATER EQUIPMENT WATER OUTLET NODE
   Branch,13,SWHSYS1 DEMAND LOAD BRANCH 12,SWHSYS1,Plant Demand,PATROOM3_MULT10_FLR_3 WATER EQUIPMENT WATER INLET NODE,PATROOM3_MULT10_FLR_3 WATER EQUIPMENT WATER OUTLET NODE
   Branch,14,SWHSYS1 DEMAND LOAD BRANCH 13,SWHSYS1,Plant Demand,PATROOM4_FLR_3 WATER EQUIPMENT WATER INLET NODE,PATROOM4_FLR_3 WATER EQUIPMENT WATER OUTLET NODE
   Branch,15,SWHSYS1 DEMAND LOAD BRANCH 14,SWHSYS1,Plant Demand,PATROOM5_MULT10_FLR_3 WATER EQUIPMENT WATER INLET NODE,PATROOM5_MULT10_FLR_3 WATER EQUIPMENT WATER OUTLET NODE
   Branch,16,SWHSYS1 DEMAND LOAD BRANCH 15,SWHSYS1,Plant Demand,PHYSTHERAPY_FLR_3 WATER EQUIPMENT WATER INLET NODE,PHYSTHERAPY_FLR_3 WATER EQUIPMENT WATER OUTLET NODE
   Branch,17,SWHSYS1 DEMAND LOAD BRANCH 16,SWHSYS1,Plant Demand,PATROOM6_FLR_3 WATER EQUIPMENT WATER INLET NODE,PATROOM6_FLR_3 WATER EQUIPMENT WATER OUTLET NODE
   Branch,18,SWHSYS1 DEMAND LOAD BRANCH 17,SWHSYS1,Plant Demand,PATROOM7_MULT10_FLR_3 WATER EQUIPMENT WATER INLET NODE,PATROOM7_MULT10_FLR_3 WATER EQUIPMENT WATER OUTLET NODE
   Branch,19,SWHSYS1 DEMAND LOAD BRANCH 18,SWHSYS1,Plant Demand,PATROOM8_FLR_3 WATER EQUIPMENT WATER INLET NODE,PATROOM8_FLR_3 WATER EQUIPMENT WATER OUTLET NODE
   Branch,20,SWHSYS1 DEMAND LOAD BRANCH 19,SWHSYS1,Plant Demand,LAB_FLR_3 WATER EQUIPMENT WATER INLET NODE,LAB_FLR_3 WATER EQUIPMENT WATER OUTLET NODE
   Branch,21,SWHSYS1 DEMAND LOAD BRANCH 20,SWHSYS1,Plant Demand,PATROOM1_MULT10_FLR_4 WATER EQUIPMENT WATER INLET NODE,PATROOM1_MULT10_FLR_4 WATER EQUIPMENT WATER OUTLET NODE
   Branch,22,SWHSYS1 DEMAND LOAD BRANCH 21,SWHSYS1,Plant Demand,PATROOM2_FLR_4 WATER EQUIPMENT WATER INLET NODE,PATROOM2_FLR_4 WATER EQUIPMENT WATER OUTLET NODE
   Branch,23,SWHSYS1 DEMAND LOAD BRANCH 22,SWHSYS1,Plant Demand,PATROOM3_MULT10_FLR_4 WATER EQUIPMENT WATER INLET NODE,PATROOM3_MULT10_FLR_4 WATER EQUIPMENT WATER OUTLET NODE
   Branch,24,SWHSYS1 DEMAND LOAD BRANCH 23,SWHSYS1,Plant Demand,PATROOM4_FLR_4 WATER EQUIPMENT WATER INLET NODE,PATROOM4_FLR_4 WATER EQUIPMENT WATER OUTLET NODE
   Branch,25,SWHSYS1 DEMAND LOAD BRANCH 24,SWHSYS1,Plant Demand,PATROOM5_MULT10_FLR_4 WATER EQUIPMENT WATER INLET NODE,PATROOM5_MULT10_FLR_4 WATER EQUIPMENT WATER OUTLET NODE
   Branch,26,SWHSYS1 DEMAND LOAD BRANCH 25,SWHSYS1,Plant Demand,RADIOLOGY_FLR_4 WATER EQUIPMENT WATER INLET NODE,RADIOLOGY_FLR_4 WATER EQUIPMENT WATER OUTLET NODE
   Branch,27,SWHSYS1 DEMAND LOAD BRANCH 26,SWHSYS1,Plant Demand,PATROOM6_FLR_4 WATER EQUIPMENT WATER INLET NODE,PATROOM6_FLR_4 WATER EQUIPMENT WATER OUTLET NODE
   Branch,28,SWHSYS1 DEMAND LOAD BRANCH 27,SWHSYS1,Plant Demand,PATROOM7_MULT10_FLR_4 WATER EQUIPMENT WATER INLET NODE,PATROOM7_MULT10_FLR_4 WATER EQUIPMENT WATER OUTLET NODE
   Branch,29,SWHSYS1 DEMAND LOAD BRANCH 28,SWHSYS1,Plant Demand,PATROOM8_FLR_4 WATER EQUIPMENT WATER INLET NODE,PATROOM8_FLR_4 WATER EQUIPMENT WATER OUTLET NODE
   Branch,30,SWHSYS1 DEMAND LOAD BRANCH 29,SWHSYS1,Plant Demand,LAB_FLR_4 WATER EQUIPMENT WATER INLET NODE,LAB_FLR_4 WATER EQUIPMENT WATER OUTLET NODE
   Branch,31,SWHSYS1 DEMAND LOAD BRANCH 30,SWHSYS1,Plant Demand,KITCHEN_FLR_5 WATER EQUIPMENT WATER INLET NODE,KITCHEN_FLR_5 WATER EQUIPMENT WATER OUTLET NODE
   Branch,32,SWHSYS1 DEMAND BYPASS BRANCH,SWHSYS1,Plant Demand,SWHSYS1 DEMAND BYPASS PIPE INLET NODE,SWHSYS1 DEMAND BYPASS PIPE OUTLET NODE
   Branch,33,SWHSYS1 DEMAND OUTLET BRANCH,SWHSYS1,Plant Demand,SWHSYS1 DEMAND MIXER-SWHSYS1 DEMAND OUTLET PIPE,SWHSYS1 DEMAND OUTLET NODE
 Branch List,12,SWHSYS1 SUPPLY BRANCHES,SWHSYS1,Plant Supply,4
   Branch,1,SWHSYS1 SUPPLY INLET BRANCH,SWHSYS1,Plant Supply,SWHSYS1 SUPPLY INLET NODE,SWHSYS1 PUMP-SWHSYS1 WATER HEATERNODEVIACONNECTOR
   Branch,2,SWHSYS1 SUPPLY EQUIPMENT BRANCH,SWHSYS1,Plant Supply,SWHSYS1 PUMP-SWHSYS1 WATER HEATERNODE,SWHSYS1 SUPPLY EQUIPMENT OUTLET NODE
   Branch,3,SWHSYS1 SUPPLY EQUIPMENT BYPASS BRANCH,SWHSYS1,Plant Supply,SWHSYS1 SUPPLY EQUIP BYPASS INLET NODE,SWHSYS1 SUPPLY EQUIP BYPASS OUTLET NODE
   Branch,4,SWHSYS1 SUPPLY OUTLET BRANCH,SWHSYS1,Plant Supply,SWHSYS1 SUPPLY MIXER-SWHSYS1 SUPPLY OUTLET PIPE,SWHSYS1 SUPPLY OUTLET NODE
! ===============================================================
! <#Supply Air Paths>,<Number of Supply Air Paths>
 #Supply Air Paths,4
! <Supply Air Path>,<Supply Air Path Count>,<Supply Air Path Name>,<AirLoopHVAC Name>
! <#Components on Supply Air Path>,<Number of Components>
! <Supply Air Path Component>,<Component Count>,<Component Type>,<Component Name>,<AirLoopHVAC Name>
! <#Outlet Nodes on Supply Air Path Component>,<Number of Nodes>
! <Supply Air Path Component Nodes>,<Node Count>,<Component Type>,<Component Name>,<Inlet Node Name>,<Outlet Node Name>,<AirLoopHVAC Name>
 Supply Air Path,1,CAV_1,CAV_1
   #Components on Supply Air Path,1
   Supply Air Path Component,1,AIRLOOPHVAC:ZONESPLITTER,CAV_1 SUPPLY AIR SPLITTER,CAV_1
     #Outlet Nodes on Supply Air Path Component,13
     Supply Air Path Component Nodes,1,AIRLOOPHVAC:ZONESPLITTER,CAV_1 SUPPLY AIR SPLITTER,CAV_1 ZONE EQUIPMENT INLET NODE,ER_EXAM1_MULT4_FLR_1 VAV BOX INLET NODE NAME,CAV_1
     Supply Air Path Component Nodes,2,AIRLOOPHVAC:ZONESPLITTER,CAV_1 SUPPLY AIR SPLITTER,CAV_1 ZONE EQUIPMENT INLET NODE,ER_TRAUMA1_FLR_1 VAV BOX INLET NODE NAME,CAV_1
     Supply Air Path Component Nodes,3,AIRLOOPHVAC:ZONESPLITTER,CAV_1 SUPPLY AIR SPLITTER,CAV_1 ZONE EQUIPMENT INLET NODE,ER_EXAM3_MULT4_FLR_1 VAV BOX INLET NODE NAME,CAV_1
     Supply Air Path Component Nodes,4,AIRLOOPHVAC:ZONESPLITTER,CAV_1 SUPPLY AIR SPLITTER,CAV_1 ZONE EQUIPMENT INLET NODE,ER_TRAUMA2_FLR_1 VAV BOX INLET NODE NAME,CAV_1
     Supply Air Path Component Nodes,5,AIRLOOPHVAC:ZONESPLITTER,CAV_1 SUPPLY AIR SPLITTER,CAV_1 ZONE EQUIPMENT INLET NODE,ER_TRIAGE_MULT4_FLR_1 VAV BOX INLET NODE NAME,CAV_1
     Supply Air Path Component Nodes,6,AIRLOOPHVAC:ZONESPLITTER,CAV_1 SUPPLY AIR SPLITTER,CAV_1 ZONE EQUIPMENT INLET NODE,IC_PATROOM1_MULT5_FLR_2 VAV BOX INLET NODE NAME,CAV_1
     Supply Air Path Component Nodes,7,AIRLOOPHVAC:ZONESPLITTER,CAV_1 SUPPLY AIR SPLITTER,CAV_1 ZONE EQUIPMENT INLET NODE,PATROOM1_MULT10_FLR_3 VAV BOX INLET NODE NAME,CAV_1
     Supply Air Path Component Nodes,8,AIRLOOPHVAC:ZONESPLITTER,CAV_1 SUPPLY AIR SPLITTER,CAV_1 ZONE EQUIPMENT INLET NODE,PATROOM5_MULT10_FLR_3 VAV BOX INLET NODE NAME,CAV_1
     Supply Air Path Component Nodes,9,AIRLOOPHVAC:ZONESPLITTER,CAV_1 SUPPLY AIR SPLITTER,CAV_1 ZONE EQUIPMENT INLET NODE,PATROOM7_MULT10_FLR_3 VAV BOX INLET NODE NAME,CAV_1
     Supply Air Path Component Nodes,10,AIRLOOPHVAC:ZONESPLITTER,CAV_1 SUPPLY AIR SPLITTER,CAV_1 ZONE EQUIPMENT INLET NODE,PATROOM3_MULT10_FLR_4 VAV BOX INLET NODE NAME,CAV_1
     Supply Air Path Component Nodes,11,AIRLOOPHVAC:ZONESPLITTER,CAV_1 SUPPLY AIR SPLITTER,CAV_1 ZONE EQUIPMENT INLET NODE,PATROOM5_MULT10_FLR_4 VAV BOX INLET NODE NAME,CAV_1
     Supply Air Path Component Nodes,12,AIRLOOPHVAC:ZONESPLITTER,CAV_1 SUPPLY AIR SPLITTER,CAV_1 ZONE EQUIPMENT INLET NODE,PATROOM6_FLR_4 VAV BOX INLET NODE NAME,CAV_1
     Supply Air Path Component Nodes,13,AIRLOOPHVAC:ZONESPLITTER,CAV_1 SUPPLY AIR SPLITTER,CAV_1 ZONE EQUIPMENT INLET NODE,PATROOM7_MULT10_FLR_4 VAV BOX INLET NODE NAME,CAV_1
! <#Nodes on Supply Air Path>,<Number of Nodes>
! <Supply Air Path Node>,<Node Type>,<Node Count>,<Node Name>,<AirLoopHVAC Name>
#Nodes on Supply Air Path,14
   Supply Air Path Node,Inlet Node,1,CAV_1 ZONE EQUIPMENT INLET NODE,CAV_1
   Supply Air Path Node,Outlet Node,2,ER_EXAM1_MULT4_FLR_1 VAV BOX INLET NODE NAME,CAV_1
   Supply Air Path Node,Outlet Node,3,ER_TRAUMA1_FLR_1 VAV BOX INLET NODE NAME,CAV_1
   Supply Air Path Node,Outlet Node,4,ER_EXAM3_MULT4_FLR_1 VAV BOX INLET NODE NAME,CAV_1
   Supply Air Path Node,Outlet Node,5,ER_TRAUMA2_FLR_1 VAV BOX INLET NODE NAME,CAV_1
   Supply Air Path Node,Outlet Node,6,ER_TRIAGE_MULT4_FLR_1 VAV BOX INLET NODE NAME,CAV_1
   Supply Air Path Node,Outlet Node,7,IC_PATROOM1_MULT5_FLR_2 VAV BOX INLET NODE NAME,CAV_1
   Supply Air Path Node,Outlet Node,8,PATROOM1_MULT10_FLR_3 VAV BOX INLET NODE NAME,CAV_1
   Supply Air Path Node,Outlet Node,9,PATROOM5_MULT10_FLR_3 VAV BOX INLET NODE NAME,CAV_1
   Supply Air Path Node,Outlet Node,10,PATROOM7_MULT10_FLR_3 VAV BOX INLET NODE NAME,CAV_1
   Supply Air Path Node,Outlet Node,11,PATROOM3_MULT10_FLR_4 VAV BOX INLET NODE NAME,CAV_1
   Supply Air Path Node,Outlet Node,12,PATROOM5_MULT10_FLR_4 VAV BOX INLET NODE NAME,CAV_1
   Supply Air Path Node,Outlet Node,13,PATROOM6_FLR_4 VAV BOX INLET NODE NAME,CAV_1
   Supply Air Path Node,Outlet Node,14,PATROOM7_MULT10_FLR_4 VAV BOX INLET NODE NAME,CAV_1
 Supply Air Path,2,CAV_2,CAV_2
   #Components on Supply Air Path,1
   Supply Air Path Component,1,AIRLOOPHVAC:ZONESPLITTER,CAV_2 SUPPLY AIR SPLITTER,CAV_2
     #Outlet Nodes on Supply Air Path Component,9
     Supply Air Path Component Nodes,1,AIRLOOPHVAC:ZONESPLITTER,CAV_2 SUPPLY AIR SPLITTER,CAV_2 ZONE EQUIPMENT INLET NODE,OR1_FLR_2 VAV BOX INLET NODE NAME,CAV_2
     Supply Air Path Component Nodes,2,AIRLOOPHVAC:ZONESPLITTER,CAV_2 SUPPLY AIR SPLITTER,CAV_2 ZONE EQUIPMENT INLET NODE,OR2_MULT5_FLR_2 VAV BOX INLET NODE NAME,CAV_2
     Supply Air Path Component Nodes,3,AIRLOOPHVAC:ZONESPLITTER,CAV_2 SUPPLY AIR SPLITTER,CAV_2 ZONE EQUIPMENT INLET NODE,OR3_FLR_2 VAV BOX INLET NODE NAME,CAV_2
     Supply Air Path Component Nodes,4,AIRLOOPHVAC:ZONESPLITTER,CAV_2 SUPPLY AIR SPLITTER,CAV_2 ZONE EQUIPMENT INLET NODE,OR4_FLR_2 VAV BOX INLET NODE NAME,CAV_2
     Supply Air Path Component Nodes,5,AIRLOOPHVAC:ZONESPLITTER,CAV_2 SUPPLY AIR SPLITTER,CAV_2 ZONE EQUIPMENT INLET NODE,IC_PATROOM2_FLR_2 VAV BOX INLET NODE NAME,CAV_2
     Supply Air Path Component Nodes,6,AIRLOOPHVAC:ZONESPLITTER,CAV_2 SUPPLY AIR SPLITTER,CAV_2 ZONE EQUIPMENT INLET NODE,PATROOM2_FLR_3 VAV BOX INLET NODE NAME,CAV_2
     Supply Air Path Component Nodes,7,AIRLOOPHVAC:ZONESPLITTER,CAV_2 SUPPLY AIR SPLITTER,CAV_2 ZONE EQUIPMENT INLET NODE,PATROOM6_FLR_3 VAV BOX INLET NODE NAME,CAV_2
     Supply Air Path Component Nodes,8,AIRLOOPHVAC:ZONESPLITTER,CAV_2 SUPPLY AIR SPLITTER,CAV_2 ZONE EQUIPMENT INLET NODE,PATROOM8_FLR_3 VAV BOX INLET NODE NAME,CAV_2
     Supply Air Path Component Nodes,9,AIRLOOPHVAC:ZONESPLITTER,CAV_2 SUPPLY AIR SPLITTER,CAV_2 ZONE EQUIPMENT INLET NODE,PATROOM4_FLR_4 VAV BOX INLET NODE NAME,CAV_2
! <#Nodes on Supply Air Path>,<Number of Nodes>
! <Supply Air Path Node>,<Node Type>,<Node Count>,<Node Name>,<AirLoopHVAC Name>
#Nodes on Supply Air Path,10
   Supply Air Path Node,Inlet Node,1,CAV_2 ZONE EQUIPMENT INLET NODE,CAV_2
   Supply Air Path Node,Outlet Node,2,OR1_FLR_2 VAV BOX INLET NODE NAME,CAV_2
   Supply Air Path Node,Outlet Node,3,OR2_MULT5_FLR_2 VAV BOX INLET NODE NAME,CAV_2
   Supply Air Path Node,Outlet Node,4,OR3_FLR_2 VAV BOX INLET NODE NAME,CAV_2
   Supply Air Path Node,Outlet Node,5,OR4_FLR_2 VAV BOX INLET NODE NAME,CAV_2
   Supply Air Path Node,Outlet Node,6,IC_PATROOM2_FLR_2 VAV BOX INLET NODE NAME,CAV_2
   Supply Air Path Node,Outlet Node,7,PATROOM2_FLR_3 VAV BOX INLET NODE NAME,CAV_2
   Supply Air Path Node,Outlet Node,8,PATROOM6_FLR_3 VAV BOX INLET NODE NAME,CAV_2
   Supply Air Path Node,Outlet Node,9,PATROOM8_FLR_3 VAV BOX INLET NODE NAME,CAV_2
   Supply Air Path Node,Outlet Node,10,PATROOM4_FLR_4 VAV BOX INLET NODE NAME,CAV_2
 Supply Air Path,3,VAV_1,VAV_1
   #Components on Supply Air Path,1
   Supply Air Path Component,1,AIRLOOPHVAC:ZONESPLITTER,VAV_1 SUPPLY AIR SPLITTER,VAV_1
     #Outlet Nodes on Supply Air Path Component,13
     Supply Air Path Component Nodes,1,AIRLOOPHVAC:ZONESPLITTER,VAV_1 SUPPLY AIR SPLITTER,VAV_1 ZONE EQUIPMENT INLET NODE,BASEMENT VAV BOX INLET NODE NAME,VAV_1
     Supply Air Path Component Nodes,2,AIRLOOPHVAC:ZONESPLITTER,VAV_1 SUPPLY AIR SPLITTER,VAV_1 ZONE EQUIPMENT INLET NODE,OFFICE1_MULT4_FLR_1 VAV BOX INLET NODE NAME,VAV_1
     Supply Air Path Component Nodes,3,AIRLOOPHVAC:ZONESPLITTER,VAV_1 SUPPLY AIR SPLITTER,VAV_1 ZONE EQUIPMENT INLET NODE,LOBBY_RECORDS_FLR_1 VAV BOX INLET NODE NAME,VAV_1
     Supply Air Path Component Nodes,4,AIRLOOPHVAC:ZONESPLITTER,VAV_1 SUPPLY AIR SPLITTER,VAV_1 ZONE EQUIPMENT INLET NODE,CORRIDOR_FLR_1 VAV BOX INLET NODE NAME,VAV_1
     Supply Air Path Component Nodes,5,AIRLOOPHVAC:ZONESPLITTER,VAV_1 SUPPLY AIR SPLITTER,VAV_1 ZONE EQUIPMENT INLET NODE,ER_NURSESTN_LOBBY_FLR_1 VAV BOX INLET NODE NAME,VAV_1
     Supply Air Path Component Nodes,6,AIRLOOPHVAC:ZONESPLITTER,VAV_1 SUPPLY AIR SPLITTER,VAV_1 ZONE EQUIPMENT INLET NODE,IC_PATROOM3_MULT6_FLR_2 VAV BOX INLET NODE NAME,VAV_1
     Supply Air Path Component Nodes,7,AIRLOOPHVAC:ZONESPLITTER,VAV_1 SUPPLY AIR SPLITTER,VAV_1 ZONE EQUIPMENT INLET NODE,ICU_NURSESTN_LOBBY_FLR_2 VAV BOX INLET NODE NAME,VAV_1
     Supply Air Path Component Nodes,8,AIRLOOPHVAC:ZONESPLITTER,VAV_1 SUPPLY AIR SPLITTER,VAV_1 ZONE EQUIPMENT INLET NODE,CORRIDOR_FLR_2 VAV BOX INLET NODE NAME,VAV_1
     Supply Air Path Component Nodes,9,AIRLOOPHVAC:ZONESPLITTER,VAV_1 SUPPLY AIR SPLITTER,VAV_1 ZONE EQUIPMENT INLET NODE,OR_NURSESTN_LOBBY_FLR_2 VAV BOX INLET NODE NAME,VAV_1
     Supply Air Path Component Nodes,10,AIRLOOPHVAC:ZONESPLITTER,VAV_1 SUPPLY AIR SPLITTER,VAV_1 ZONE EQUIPMENT INLET NODE,PATROOM3_MULT10_FLR_3 VAV BOX INLET NODE NAME,VAV_1
     Supply Air Path Component Nodes,11,AIRLOOPHVAC:ZONESPLITTER,VAV_1 SUPPLY AIR SPLITTER,VAV_1 ZONE EQUIPMENT INLET NODE,LAB_FLR_3 VAV BOX INLET NODE NAME,VAV_1
     Supply Air Path Component Nodes,12,AIRLOOPHVAC:ZONESPLITTER,VAV_1 SUPPLY AIR SPLITTER,VAV_1 ZONE EQUIPMENT INLET NODE,PATROOM1_MULT10_FLR_4 VAV BOX INLET NODE NAME,VAV_1
     Supply Air Path Component Nodes,13,AIRLOOPHVAC:ZONESPLITTER,VAV_1 SUPPLY AIR SPLITTER,VAV_1 ZONE EQUIPMENT INLET NODE,PATROOM8_FLR_4 VAV BOX INLET NODE NAME,VAV_1
! <#Nodes on Supply Air Path>,<Number of Nodes>
! <Supply Air Path Node>,<Node Type>,<Node Count>,<Node Name>,<AirLoopHVAC Name>
#Nodes on Supply Air Path,14
   Supply Air Path Node,Inlet Node,1,VAV_1 ZONE EQUIPMENT INLET NODE,VAV_1
   Supply Air Path Node,Outlet Node,2,BASEMENT VAV BOX INLET NODE NAME,VAV_1
   Supply Air Path Node,Outlet Node,3,OFFICE1_MULT4_FLR_1 VAV BOX INLET NODE NAME,VAV_1
   Supply Air Path Node,Outlet Node,4,LOBBY_RECORDS_FLR_1 VAV BOX INLET NODE NAME,VAV_1
   Supply Air Path Node,Outlet Node,5,CORRIDOR_FLR_1 VAV BOX INLET NODE NAME,VAV_1
   Supply Air Path Node,Outlet Node,6,ER_NURSESTN_LOBBY_FLR_1 VAV BOX INLET NODE NAME,VAV_1
   Supply Air Path Node,Outlet Node,7,IC_PATROOM3_MULT6_FLR_2 VAV BOX INLET NODE NAME,VAV_1
   Supply Air Path Node,Outlet Node,8,ICU_NURSESTN_LOBBY_FLR_2 VAV BOX INLET NODE NAME,VAV_1
   Supply Air Path Node,Outlet Node,9,CORRIDOR_FLR_2 VAV BOX INLET NODE NAME,VAV_1
   Supply Air Path Node,Outlet Node,10,OR_NURSESTN_LOBBY_FLR_2 VAV BOX INLET NODE NAME,VAV_1
   Supply Air Path Node,Outlet Node,11,PATROOM3_MULT10_FLR_3 VAV BOX INLET NODE NAME,VAV_1
   Supply Air Path Node,Outlet Node,12,LAB_FLR_3 VAV BOX INLET NODE NAME,VAV_1
   Supply Air Path Node,Outlet Node,13,PATROOM1_MULT10_FLR_4 VAV BOX INLET NODE NAME,VAV_1
   Supply Air Path Node,Outlet Node,14,PATROOM8_FLR_4 VAV BOX INLET NODE NAME,VAV_1
 Supply Air Path,4,VAV_2,VAV_2
   #Components on Supply Air Path,1
   Supply Air Path Component,1,AIRLOOPHVAC:ZONESPLITTER,VAV_2 SUPPLY AIR SPLITTER,VAV_2
     #Outlet Nodes on Supply Air Path Component,20
     Supply Air Path Component Nodes,1,AIRLOOPHVAC:ZONESPLITTER,VAV_2 SUPPLY AIR SPLITTER,VAV_2 ZONE EQUIPMENT INLET NODE,ICU_FLR_2 VAV BOX INLET NODE NAME,VAV_2
     Supply Air Path Component Nodes,2,AIRLOOPHVAC:ZONESPLITTER,VAV_2 SUPPLY AIR SPLITTER,VAV_2 ZONE EQUIPMENT INLET NODE,PATROOM4_FLR_3 VAV BOX INLET NODE NAME,VAV_2
     Supply Air Path Component Nodes,3,AIRLOOPHVAC:ZONESPLITTER,VAV_2 SUPPLY AIR SPLITTER,VAV_2 ZONE EQUIPMENT INLET NODE,PHYSTHERAPY_FLR_3 VAV BOX INLET NODE NAME,VAV_2
     Supply Air Path Component Nodes,4,AIRLOOPHVAC:ZONESPLITTER,VAV_2 SUPPLY AIR SPLITTER,VAV_2 ZONE EQUIPMENT INLET NODE,NURSESTN_LOBBY_FLR_3 VAV BOX INLET NODE NAME,VAV_2
     Supply Air Path Component Nodes,5,AIRLOOPHVAC:ZONESPLITTER,VAV_2 SUPPLY AIR SPLITTER,VAV_2 ZONE EQUIPMENT INLET NODE,CORRIDOR_SE_FLR_3 VAV BOX INLET NODE NAME,VAV_2
     Supply Air Path Component Nodes,6,AIRLOOPHVAC:ZONESPLITTER,VAV_2 SUPPLY AIR SPLITTER,VAV_2 ZONE EQUIPMENT INLET NODE,CORRIDOR_NW_FLR_3 VAV BOX INLET NODE NAME,VAV_2
     Supply Air Path Component Nodes,7,AIRLOOPHVAC:ZONESPLITTER,VAV_2 SUPPLY AIR SPLITTER,VAV_2 ZONE EQUIPMENT INLET NODE,PATROOM2_FLR_4 VAV BOX INLET NODE NAME,VAV_2
     Supply Air Path Component Nodes,8,AIRLOOPHVAC:ZONESPLITTER,VAV_2 SUPPLY AIR SPLITTER,VAV_2 ZONE EQUIPMENT INLET NODE,RADIOLOGY_FLR_4 VAV BOX INLET NODE NAME,VAV_2
     Supply Air Path Component Nodes,9,AIRLOOPHVAC:ZONESPLITTER,VAV_2 SUPPLY AIR SPLITTER,VAV_2 ZONE EQUIPMENT INLET NODE,NURSESTN_LOBBY_FLR_4 VAV BOX INLET NODE NAME,VAV_2
     Supply Air Path Component Nodes,10,AIRLOOPHVAC:ZONESPLITTER,VAV_2 SUPPLY AIR SPLITTER,VAV_2 ZONE EQUIPMENT INLET NODE,LAB_FLR_4 VAV BOX INLET NODE NAME,VAV_2
     Supply Air Path Component Nodes,11,AIRLOOPHVAC:ZONESPLITTER,VAV_2 SUPPLY AIR SPLITTER,VAV_2 ZONE EQUIPMENT INLET NODE,CORRIDOR_SE_FLR_4 VAV BOX INLET NODE NAME,VAV_2
     Supply Air Path Component Nodes,12,AIRLOOPHVAC:ZONESPLITTER,VAV_2 SUPPLY AIR SPLITTER,VAV_2 ZONE EQUIPMENT INLET NODE,CORRIDOR_NW_FLR_4 VAV BOX INLET NODE NAME,VAV_2
     Supply Air Path Component Nodes,13,AIRLOOPHVAC:ZONESPLITTER,VAV_2 SUPPLY AIR SPLITTER,VAV_2 ZONE EQUIPMENT INLET NODE,DINING_FLR_5 VAV BOX INLET NODE NAME,VAV_2
     Supply Air Path Component Nodes,14,AIRLOOPHVAC:ZONESPLITTER,VAV_2 SUPPLY AIR SPLITTER,VAV_2 ZONE EQUIPMENT INLET NODE,NURSESTN_LOBBY_FLR_5 VAV BOX INLET NODE NAME,VAV_2
     Supply Air Path Component Nodes,15,AIRLOOPHVAC:ZONESPLITTER,VAV_2 SUPPLY AIR SPLITTER,VAV_2 ZONE EQUIPMENT INLET NODE,KITCHEN_FLR_5 VAV BOX INLET NODE NAME,VAV_2
     Supply Air Path Component Nodes,16,AIRLOOPHVAC:ZONESPLITTER,VAV_2 SUPPLY AIR SPLITTER,VAV_2 ZONE EQUIPMENT INLET NODE,OFFICE1_FLR_5 VAV BOX INLET NODE NAME,VAV_2
     Supply Air Path Component Nodes,17,AIRLOOPHVAC:ZONESPLITTER,VAV_2 SUPPLY AIR SPLITTER,VAV_2 ZONE EQUIPMENT INLET NODE,OFFICE2_MULT5_FLR_5 VAV BOX INLET NODE NAME,VAV_2
     Supply Air Path Component Nodes,18,AIRLOOPHVAC:ZONESPLITTER,VAV_2 SUPPLY AIR SPLITTER,VAV_2 ZONE EQUIPMENT INLET NODE,OFFICE3_FLR_5 VAV BOX INLET NODE NAME,VAV_2
     Supply Air Path Component Nodes,19,AIRLOOPHVAC:ZONESPLITTER,VAV_2 SUPPLY AIR SPLITTER,VAV_2 ZONE EQUIPMENT INLET NODE,OFFICE4_MULT6_FLR_5 VAV BOX INLET NODE NAME,VAV_2
     Supply Air Path Component Nodes,20,AIRLOOPHVAC:ZONESPLITTER,VAV_2 SUPPLY AIR SPLITTER,VAV_2 ZONE EQUIPMENT INLET NODE,CORRIDOR_FLR_5 VAV BOX INLET NODE NAME,VAV_2
! <#Nodes on Supply Air Path>,<Number of Nodes>
! <Supply Air Path Node>,<Node Type>,<Node Count>,<Node Name>,<AirLoopHVAC Name>
#Nodes on Supply Air Path,21
   Supply Air Path Node,Inlet Node,1,VAV_2 ZONE EQUIPMENT INLET NODE,VAV_2
   Supply Air Path Node,Outlet Node,2,ICU_FLR_2 VAV BOX INLET NODE NAME,VAV_2
   Supply Air Path Node,Outlet Node,3,PATROOM4_FLR_3 VAV BOX INLET NODE NAME,VAV_2
   Supply Air Path Node,Outlet Node,4,PHYSTHERAPY_FLR_3 VAV BOX INLET NODE NAME,VAV_2
   Supply Air Path Node,Outlet Node,5,NURSESTN_LOBBY_FLR_3 VAV BOX INLET NODE NAME,VAV_2
   Supply Air Path Node,Outlet Node,6,CORRIDOR_SE_FLR_3 VAV BOX INLET NODE NAME,VAV_2
   Supply Air Path Node,Outlet Node,7,CORRIDOR_NW_FLR_3 VAV BOX INLET NODE NAME,VAV_2
   Supply Air Path Node,Outlet Node,8,PATROOM2_FLR_4 VAV BOX INLET NODE NAME,VAV_2
   Supply Air Path Node,Outlet Node,9,RADIOLOGY_FLR_4 VAV BOX INLET NODE NAME,VAV_2
   Supply Air Path Node,Outlet Node,10,NURSESTN_LOBBY_FLR_4 VAV BOX INLET NODE NAME,VAV_2
   Supply Air Path Node,Outlet Node,11,LAB_FLR_4 VAV BOX INLET NODE NAME,VAV_2
   Supply Air Path Node,Outlet Node,12,CORRIDOR_SE_FLR_4 VAV BOX INLET NODE NAME,VAV_2
   Supply Air Path Node,Outlet Node,13,CORRIDOR_NW_FLR_4 VAV BOX INLET NODE NAME,VAV_2
   Supply Air Path Node,Outlet Node,14,DINING_FLR_5 VAV BOX INLET NODE NAME,VAV_2
   Supply Air Path Node,Outlet Node,15,NURSESTN_LOBBY_FLR_5 VAV BOX INLET NODE NAME,VAV_2
   Supply Air Path Node,Outlet Node,16,KITCHEN_FLR_5 VAV BOX INLET NODE NAME,VAV_2
   Supply Air Path Node,Outlet Node,17,OFFICE1_FLR_5 VAV BOX INLET NODE NAME,VAV_2
   Supply Air Path Node,Outlet Node,18,OFFICE2_MULT5_FLR_5 VAV BOX INLET NODE NAME,VAV_2
   Supply Air Path Node,Outlet Node,19,OFFICE3_FLR_5 VAV BOX INLET NODE NAME,VAV_2
   Supply Air Path Node,Outlet Node,20,OFFICE4_MULT6_FLR_5 VAV BOX INLET NODE NAME,VAV_2
   Supply Air Path Node,Outlet Node,21,CORRIDOR_FLR_5 VAV BOX INLET NODE NAME,VAV_2
! ===============================================================
! <#Return Air Paths>,<Number of Return Air Paths>
 #Return Air Paths,4
! <Return Air Path>,<Return Air Path Count>,<Return Air Path Name>,<AirLoopHVAC Name>
! <#Components on Return Air Path>,<Number of Components>
! <Return Air Path Component>,<Component Count>,<Component Type>,<Component Name>,<AirLoopHVAC Name>
! <#Inlet Nodes on Return Air Path Component>,<Number of Nodes>
! <Return Air Path Component Nodes>,<Node Count>,<Component Type>,<Component Name>,<Inlet Node Name>,<Outlet Node Name>,<AirLoopHVAC Name>
 Return Air Path,1,CAV_1 RETURN AIR PATH,CAV_1
   #Components on Return Air Path,1
   Return Air Path Component,1,AIRLOOPHVAC:ZONEMIXER,CAV_1 RETURN AIR MIXER,CAV_1
     #Inlet Nodes on Return Air Path Component,13
     Return Air Path Component Nodes,1,AIRLOOPHVAC:ZONEMIXER,CAV_1 RETURN AIR MIXER,ER_EXAM1_MULT4_FLR_1 RETURN AIR NODE NAME,CAV_1 ZONE EQUIPMENT OUTLET NODE,CAV_1
     Return Air Path Component Nodes,2,AIRLOOPHVAC:ZONEMIXER,CAV_1 RETURN AIR MIXER,ER_TRAUMA1_FLR_1 RETURN AIR NODE NAME,CAV_1 ZONE EQUIPMENT OUTLET NODE,CAV_1
     Return Air Path Component Nodes,3,AIRLOOPHVAC:ZONEMIXER,CAV_1 RETURN AIR MIXER,ER_EXAM3_MULT4_FLR_1 RETURN AIR NODE NAME,CAV_1 ZONE EQUIPMENT OUTLET NODE,CAV_1
     Return Air Path Component Nodes,4,AIRLOOPHVAC:ZONEMIXER,CAV_1 RETURN AIR MIXER,ER_TRAUMA2_FLR_1 RETURN AIR NODE NAME,CAV_1 ZONE EQUIPMENT OUTLET NODE,CAV_1
     Return Air Path Component Nodes,5,AIRLOOPHVAC:ZONEMIXER,CAV_1 RETURN AIR MIXER,ER_TRIAGE_MULT4_FLR_1 RETURN AIR NODE NAME,CAV_1 ZONE EQUIPMENT OUTLET NODE,CAV_1
     Return Air Path Component Nodes,6,AIRLOOPHVAC:ZONEMIXER,CAV_1 RETURN AIR MIXER,IC_PATROOM1_MULT5_FLR_2 RETURN AIR NODE NAME,CAV_1 ZONE EQUIPMENT OUTLET NODE,CAV_1
     Return Air Path Component Nodes,7,AIRLOOPHVAC:ZONEMIXER,CAV_1 RETURN AIR MIXER,PATROOM1_MULT10_FLR_3 RETURN AIR NODE NAME,CAV_1 ZONE EQUIPMENT OUTLET NODE,CAV_1
     Return Air Path Component Nodes,8,AIRLOOPHVAC:ZONEMIXER,CAV_1 RETURN AIR MIXER,PATROOM5_MULT10_FLR_3 RETURN AIR NODE NAME,CAV_1 ZONE EQUIPMENT OUTLET NODE,CAV_1
     Return Air Path Component Nodes,9,AIRLOOPHVAC:ZONEMIXER,CAV_1 RETURN AIR MIXER,PATROOM7_MULT10_FLR_3 RETURN AIR NODE NAME,CAV_1 ZONE EQUIPMENT OUTLET NODE,CAV_1
     Return Air Path Component Nodes,10,AIRLOOPHVAC:ZONEMIXER,CAV_1 RETURN AIR MIXER,PATROOM3_MULT10_FLR_4 RETURN AIR NODE NAME,CAV_1 ZONE EQUIPMENT OUTLET NODE,CAV_1
     Return Air Path Component Nodes,11,AIRLOOPHVAC:ZONEMIXER,CAV_1 RETURN AIR MIXER,PATROOM5_MULT10_FLR_4 RETURN AIR NODE NAME,CAV_1 ZONE EQUIPMENT OUTLET NODE,CAV_1
     Return Air Path Component Nodes,12,AIRLOOPHVAC:ZONEMIXER,CAV_1 RETURN AIR MIXER,PATROOM6_FLR_4 RETURN AIR NODE NAME,CAV_1 ZONE EQUIPMENT OUTLET NODE,CAV_1
     Return Air Path Component Nodes,13,AIRLOOPHVAC:ZONEMIXER,CAV_1 RETURN AIR MIXER,PATROOM7_MULT10_FLR_4 RETURN AIR NODE NAME,CAV_1 ZONE EQUIPMENT OUTLET NODE,CAV_1
! <#Nodes on Return Air Path>,<Number of Nodes>
! <Return Air Path Node>,<Node Type>,<Node Count>,<Node Name>,<AirLoopHVAC Name>
   #Nodes on Return Air Path,14
   Return Air Path Node,Outlet Node,1,CAV_1 ZONE EQUIPMENT OUTLET NODE,CAV_1
   Return Air Path Node,Inlet Node,2,ER_EXAM1_MULT4_FLR_1 RETURN AIR NODE NAME,CAV_1
   Return Air Path Node,Inlet Node,3,ER_TRAUMA1_FLR_1 RETURN AIR NODE NAME,CAV_1
   Return Air Path Node,Inlet Node,4,ER_EXAM3_MULT4_FLR_1 RETURN AIR NODE NAME,CAV_1
   Return Air Path Node,Inlet Node,5,ER_TRAUMA2_FLR_1 RETURN AIR NODE NAME,CAV_1
   Return Air Path Node,Inlet Node,6,ER_TRIAGE_MULT4_FLR_1 RETURN AIR NODE NAME,CAV_1
   Return Air Path Node,Inlet Node,7,IC_PATROOM1_MULT5_FLR_2 RETURN AIR NODE NAME,CAV_1
   Return Air Path Node,Inlet Node,8,PATROOM1_MULT10_FLR_3 RETURN AIR NODE NAME,CAV_1
   Return Air Path Node,Inlet Node,9,PATROOM5_MULT10_FLR_3 RETURN AIR NODE NAME,CAV_1
   Return Air Path Node,Inlet Node,10,PATROOM7_MULT10_FLR_3 RETURN AIR NODE NAME,CAV_1
   Return Air Path Node,Inlet Node,11,PATROOM3_MULT10_FLR_4 RETURN AIR NODE NAME,CAV_1
   Return Air Path Node,Inlet Node,12,PATROOM5_MULT10_FLR_4 RETURN AIR NODE NAME,CAV_1
   Return Air Path Node,Inlet Node,13,PATROOM6_FLR_4 RETURN AIR NODE NAME,CAV_1
   Return Air Path Node,Inlet Node,14,PATROOM7_MULT10_FLR_4 RETURN AIR NODE NAME,CAV_1
 Return Air Path,2,CAV_2 RETURN AIR PATH,CAV_2
[...]
 Non-Parent Node Connection,DINING_FLR_5 EXHAUST FAN OUTLET NODE NAME,FAN:ZONEEXHAUST,DINING_FLR_5 EXHAUST FAN,Outlet,1
 Non-Parent Node Connection,KITCHEN_FLR_5 EXHAUST FAN NODE,FAN:ZONEEXHAUST,KITCHEN_FLR_5 EXHAUST FAN,Inlet,1
 Non-Parent Node Connection,KITCHEN_FLR_5 EXHAUST FAN OUTLET NODE NAME,FAN:ZONEEXHAUST,KITCHEN_FLR_5 EXHAUST FAN,Outlet,1
 Non-Parent Node Connection,CAV_1 ZONE EQUIPMENT OUTLET NODE,AIRLOOPHVAC:ZONEMIXER,CAV_1 RETURN AIR MIXER,Outlet,1
 Non-Parent Node Connection,ER_EXAM1_MULT4_FLR_1 RETURN AIR NODE NAME,AIRLOOPHVAC:ZONEMIXER,CAV_1 RETURN AIR MIXER,Inlet,1
 Non-Parent Node Connection,ER_TRAUMA1_FLR_1 RETURN AIR NODE NAME,AIRLOOPHVAC:ZONEMIXER,CAV_1 RETURN AIR MIXER,Inlet,1
 Non-Parent Node Connection,ER_EXAM3_MULT4_FLR_1 RETURN AIR NODE NAME,AIRLOOPHVAC:ZONEMIXER,CAV_1 RETURN AIR MIXER,Inlet,1
 Non-Parent Node Connection,ER_TRAUMA2_FLR_1 RETURN AIR NODE NAME,AIRLOOPHVAC:ZONEMIXER,CAV_1 RETURN AIR MIXER,Inlet,1
 Non-Parent Node Connection,ER_TRIAGE_MULT4_FLR_1 RETURN AIR NODE NAME,AIRLOOPHVAC:ZONEMIXER,CAV_1 RETURN AIR MIXER,Inlet,1
 Non-Parent Node Connection,IC_PATROOM1_MULT5_FLR_2 RETURN AIR NODE NAME,AIRLOOPHVAC:ZONEMIXER,CAV_1 RETURN AIR MIXER,Inlet,1
 Non-Parent Node Connection,PATROOM1_MULT10_FLR_3 RETURN AIR NODE NAME,AIRLOOPHVAC:ZONEMIXER,CAV_1 RETURN AIR MIXER,Inlet,1
 Non-Parent Node Connection,PATROOM5_MULT10_FLR_3 RETURN AIR NODE NAME,AIRLOOPHVAC:ZONEMIXER,CAV_1 RETURN AIR MIXER,Inlet,1
 Non-Parent Node Connection,PATROOM7_MULT10_FLR_3 RETURN AIR NODE NAME,AIRLOOPHVAC:ZONEMIXER,CAV_1 RETURN AIR MIXER,Inlet,1
 Non-Parent Node Connection,PATROOM3_MULT10_FLR_4 RETURN AIR NODE NAME,AIRLOOPHVAC:ZONEMIXER,CAV_1 RETURN AIR MIXER,Inlet,1
 Non-Parent Node Connection,PATROOM5_MULT10_FLR_4 RETURN AIR NODE NAME,AIRLOOPHVAC:ZONEMIXER,CAV_1 RETURN AIR MIXER,Inlet,1
 Non-Parent Node Connection,PATROOM6_FLR_4 RETURN AIR NODE NAME,AIRLOOPHVAC:ZONEMIXER,CAV_1 RETURN AIR MIXER,Inlet,1
 Non-Parent Node Connection,PATROOM7_MULT10_FLR_4 RETURN AIR NODE NAME,AIRLOOPHVAC:ZONEMIXER,CAV_1 RETURN AIR MIXER,Inlet,1
 Non-Parent Node Connection,CAV_2 ZONE EQUIPMENT OUTLET NODE,AIRLOOPHVAC:ZONEMIXER,CAV_2 RETURN AIR MIXER,Outlet,1
 Non-Parent Node Connection,OR1_FLR_2 RETURN AIR NODE NAME,AIRLOOPHVAC:ZONEMIXER,CAV_2 RETURN AIR MIXER,Inlet,1
 Non-Parent Node Connection,OR2_MULT5_FLR_2 RETURN AIR NODE NAME,AIRLOOPHVAC:ZONEMIXER,CAV_2 RETURN AIR MIXER,Inlet,1
 Non-Parent Node Connection,OR3_FLR_2 RETURN AIR NODE NAME,AIRLOOPHVAC:ZONEMIXER,CAV_2 RETURN AIR MIXER,Inlet,1
 Non-Parent Node Connection,OR4_FLR_2 RETURN AIR NODE NAME,AIRLOOPHVAC:ZONEMIXER,CAV_2 RETURN AIR MIXER,Inlet,1
 Non-Parent Node Connection,IC_PATROOM2_FLR_2 RETURN AIR NODE NAME,AIRLOOPHVAC:ZONEMIXER,CAV_2 RETURN AIR MIXER,Inlet,1
 Non-Parent Node Connection,PATROOM2_FLR_3 RETURN AIR NODE NAME,AIRLOOPHVAC:ZONEMIXER,CAV_2 RETURN AIR MIXER,Inlet,1
 Non-Parent Node Connection,PATROOM6_FLR_3 RETURN AIR NODE NAME,AIRLOOPHVAC:ZONEMIXER,CAV_2 RETURN AIR MIXER,Inlet,1
 Non-Parent Node Connection,PATROOM8_FLR_3 RETURN AIR NODE NAME,AIRLOOPHVAC:ZONEMIXER,CAV_2 RETURN AIR MIXER,Inlet,1
 Non-Parent Node Connection,PATROOM4_FLR_4 RETURN AIR NODE NAME,AIRLOOPHVAC:ZONEMIXER,CAV_2 RETURN AIR MIXER,Inlet,1
 Non-Parent Node Connection,VAV_1 ZONE EQUIPMENT OUTLET NODE,AIRLOOPHVAC:ZONEMIXER,VAV_1 RETURN AIR MIXER,Outlet,1
 Non-Parent Node Connection,BASEMENT RETURN AIR NODE NAME,AIRLOOPHVAC:ZONEMIXER,VAV_1 RETURN AIR MIXER,Inlet,1
 Non-Parent Node Connection,OFFICE1_MULT4_FLR_1 RETURN AIR NODE NAME,AIRLOOPHVAC:ZONEMIXER,VAV_1 RETURN AIR MIXER,Inlet,1
 Non-Parent Node Connection,LOBBY_RECORDS_FLR_1 RETURN AIR NODE NAME,AIRLOOPHVAC:ZONEMIXER,VAV_1 RETURN AIR MIXER,Inlet,1
 Non-Parent Node Connection,CORRIDOR_FLR_1 RETURN AIR NODE NAME,AIRLOOPHVAC:ZONEMIXER,VAV_1 RETURN AIR MIXER,Inlet,1
 Non-Parent Node Connection,ER_NURSESTN_LOBBY_FLR_1 RETURN AIR NODE NAME,AIRLOOPHVAC:ZONEMIXER,VAV_1 RETURN AIR MIXER,Inlet,1
 Non-Parent Node Connection,IC_PATROOM3_MULT6_FLR_2 RETURN AIR NODE NAME,AIRLOOPHVAC:ZONEMIXER,VAV_1 RETURN AIR MIXER,Inlet,1
 Non-Parent Node Connection,ICU_NURSESTN_LOBBY_FLR_2 RETURN AIR NODE NAME,AIRLOOPHVAC:ZONEMIXER,VAV_1 RETURN AIR MIXER,Inlet,1
 Non-Parent Node Connection,CORRIDOR_FLR_2 RETURN AIR NODE NAME,AIRLOOPHVAC:ZONEMIXER,VAV_1 RETURN AIR MIXER,Inlet,1
 Non-Parent Node Connection,OR_NURSESTN_LOBBY_FLR_2 RETURN AIR NODE NAME,AIRLOOPHVAC:ZONEMIXER,VAV_1 RETURN AIR MIXER,Inlet,1
 Non-Parent Node Connection,PATROOM3_MULT10_FLR_3 RETURN AIR NODE NAME,AIRLOOPHVAC:ZONEMIXER,VAV_1 RETURN AIR MIXER,Inlet,1
 Non-Parent Node Connection,LAB_FLR_3 RETURN AIR NODE NAME,AIRLOOPHVAC:ZONEMIXER,VAV_1 RETURN AIR MIXER,Inlet,1
 Non-Parent Node Connection,PATROOM1_MULT10_FLR_4 RETURN AIR NODE NAME,AIRLOOPHVAC:ZONEMIXER,VAV_1 RETURN AIR MIXER,Inlet,1
 Non-Parent Node Connection,PATROOM8_FLR_4 RETURN AIR NODE NAME,AIRLOOPHVAC:ZONEMIXER,VAV_1 RETURN AIR MIXER,Inlet,1
 Non-Parent Node Connection,VAV_2 ZONE EQUIPMENT OUTLET NODE,AIRLOOPHVAC:ZONEMIXER,VAV_2 RETURN AIR MIXER,Outlet,1
 Non-Parent Node Connection,ICU_FLR_2 RETURN AIR NODE NAME,AIRLOOPHVAC:ZONEMIXER,VAV_2 RETURN AIR MIXER,Inlet,1
 Non-Parent Node Connection,PATROOM4_FLR_3 RETURN AIR NODE NAME,AIRLOOPHVAC:ZONEMIXER,VAV_2 RETURN AIR MIXER,Inlet,1
 Non-Parent Node Connection,PHYSTHERAPY_FLR_3 RETURN AIR NODE NAME,AIRLOOPHVAC:ZONEMIXER,VAV_2 RETURN AIR MIXER,Inlet,1
 Non-Parent Node Connection,NURSESTN_LOBBY_FLR_3 RETURN AIR NODE NAME,AIRLOOPHVAC:ZONEMIXER,VAV_2 RETURN AIR MIXER,Inlet,1
 Non-Parent Node Connection,CORRIDOR_SE_FLR_3 RETURN AIR NODE NAME,AIRLOOPHVAC:ZONEMIXER,VAV_2 RETURN AIR MIXER,Inlet,1
 Non-Parent Node Connection,CORRIDOR_NW_FLR_3 RETURN AIR NODE NAME,AIRLOOPHVAC:ZONEMIXER,VAV_2 RETURN AIR MIXER,Inlet,1
 Non-Parent Node Connection,PATROOM2_FLR_4 RETURN AIR NODE NAME,AIRLOOPHVAC:ZONEMIXER,VAV_2 RETURN AIR MIXER,Inlet,1
 Non-Parent Node Connection,RADIOLOGY_FLR_4 RETURN AIR NODE NAME,AIRLOOPHVAC:ZONEMIXER,VAV_2 RETURN AIR MIXER,Inlet,1
 Non-Parent Node Connection,NURSESTN_LOBBY_FLR_4 RETURN AIR NODE NAME,AIRLOOPHVAC:ZONEMIXER,VAV_2 RETURN AIR MIXER,Inlet,1
 Non-Parent Node Connection,LAB_FLR_4 RETURN AIR NODE NAME,AIRLOOPHVAC:ZONEMIXER,VAV_2 RETURN AIR MIXER,Inlet,1
 Non-Parent Node Connection,CORRIDOR_SE_FLR_4 RETURN AIR NODE NAME,AIRLOOPHVAC:ZONEMIXER,VAV_2 RETURN AIR MIXER,Inlet,1
 Non-Parent Node Connection,CORRIDOR_NW_FLR_4 RETURN AIR NODE NAME,AIRLOOPHVAC:ZONEMIXER,VAV_2 RETURN AIR MIXER,Inlet,1
 Non-Parent Node Connection,DINING_FLR_5 RETURN AIR NODE NAME,AIRLOOPHVAC:ZONEMIXER,VAV_2 RETURN AIR MIXER,Inlet,1
 Non-Parent Node Connection,NURSESTN_LOBBY_FLR_5 RETURN AIR NODE NAME,AIRLOOPHVAC:ZONEMIXER,VAV_2 RETURN AIR MIXER,Inlet,1
 Non-Parent Node Connection,KITCHEN_FLR_5 RETURN AIR NODE NAME,AIRLOOPHVAC:ZONEMIXER,VAV_2 RETURN AIR MIXER,Inlet,1
 Non-Parent Node Connection,OFFICE1_FLR_5 RETURN AIR NODE NAME,AIRLOOPHVAC:ZONEMIXER,VAV_2 RETURN AIR MIXER,Inlet,1
 Non-Parent Node Connection,OFFICE2_MULT5_FLR_5 RETURN AIR NODE NAME,AIRLOOPHVAC:ZONEMIXER,VAV_2 RETURN AIR MIXER,Inlet,1
 Non-Parent Node Connection,OFFICE3_FLR_5 RETURN AIR NODE NAME,AIRLOOPHVAC:ZONEMIXER,VAV_2 RETURN AIR MIXER,Inlet,1
 Non-Parent Node Connection,OFFICE4_MULT6_FLR_5 RETURN AIR NODE NAME,AIRLOOPHVAC:ZONEMIXER,VAV_2 RETURN AIR MIXER,Inlet,1
 Non-Parent Node Connection,CORRIDOR_FLR_5 RETURN AIR NODE NAME,AIRLOOPHVAC:ZONEMIXER,VAV_2 RETURN AIR MIXER,Inlet,1
 Non-Parent Node Connection,CAV_1_OA-CAV_1 HUMIDIFIERNODE,OUTDOORAIR:MIXER,CAV_1_OAMIXING BOX,Outlet,1
 Non-Parent Node Connection,CAV_1_OAINLET NODE,OUTDOORAIR:MIXER,CAV_1_OAMIXING BOX,Inlet,1
 Non-Parent Node Connection,CAV_1_OARELIEF NODE,OUTDOORAIR:MIXER,CAV_1_OAMIXING BOX,ReliefAir,1
 Non-Parent Node Connection,CAV_1 SUPPLY EQUIPMENT INLET NODE,OUTDOORAIR:MIXER,CAV_1_OAMIXING BOX,Inlet,1
 Non-Parent Node Connection,CAV_2_OA-CAV_2 HUMIDIFIERNODE,OUTDOORAIR:MIXER,CAV_2_OAMIXING BOX,Outlet,1
 Non-Parent Node Connection,CAV_2_OAINLET NODE,OUTDOORAIR:MIXER,CAV_2_OAMIXING BOX,Inlet,1
 Non-Parent Node Connection,CAV_2_OARELIEF NODE,OUTDOORAIR:MIXER,CAV_2_OAMIXING BOX,ReliefAir,1
 Non-Parent Node Connection,CAV_2 SUPPLY EQUIPMENT INLET NODE,OUTDOORAIR:MIXER,CAV_2_OAMIXING BOX,Inlet,1
 Non-Parent Node Connection,VAV_1_OA-VAV_1_COOLCNODE,OUTDOORAIR:MIXER,VAV_1_OAMIXING BOX,Outlet,1
 Non-Parent Node Connection,VAV_1_OAINLET NODE,OUTDOORAIR:MIXER,VAV_1_OAMIXING BOX,Inlet,1
 Non-Parent Node Connection,VAV_1_OARELIEF NODE,OUTDOORAIR:MIXER,VAV_1_OAMIXING BOX,ReliefAir,1
 Non-Parent Node Connection,VAV_1 SUPPLY EQUIPMENT INLET NODE,OUTDOORAIR:MIXER,VAV_1_OAMIXING BOX,Inlet,1
 Non-Parent Node Connection,VAV_2_OA-VAV_2_COOLCNODE,OUTDOORAIR:MIXER,VAV_2_OAMIXING BOX,Outlet,1
 Non-Parent Node Connection,VAV_2_OAINLET NODE,OUTDOORAIR:MIXER,VAV_2_OAMIXING BOX,Inlet,1
 Non-Parent Node Connection,VAV_2_OARELIEF NODE,OUTDOORAIR:MIXER,VAV_2_OAMIXING BOX,ReliefAir,1
 Non-Parent Node Connection,VAV_2 SUPPLY EQUIPMENT INLET NODE,OUTDOORAIR:MIXER,VAV_2_OAMIXING BOX,Inlet,1
 Non-Parent Node Connection,CAV_1_COOLC-CAV_1_HEATCNODE,CONTROLLER:WATERCOIL,CAV_1_COOLC_CONTROLLER,Sensor,1
 Non-Parent Node Connection,CAV_1_COOLCDEMAND INLET NODE,CONTROLLER:WATERCOIL,CAV_1_COOLC_CONTROLLER,Actuator,1
 Non-Parent Node Connection,CAV_1_HEATC-CAV_1_FANNODE,CONTROLLER:WATERCOIL,CAV_1_HEATC_CONTROLLER,Sensor,1
 Non-Parent Node Connection,CAV_1_HEATCDEMAND INLET NODE,CONTROLLER:WATERCOIL,CAV_1_HEATC_CONTROLLER,Actuator,1
 Non-Parent Node Connection,CAV_2_COOLC-CAV_2_HEATCNODE,CONTROLLER:WATERCOIL,CAV_2_COOLC_CONTROLLER,Sensor,1
 Non-Parent Node Connection,CAV_2_COOLCDEMAND INLET NODE,CONTROLLER:WATERCOIL,CAV_2_COOLC_CONTROLLER,Actuator,1
 Non-Parent Node Connection,CAV_2_HEATC-CAV_2_FANNODE,CONTROLLER:WATERCOIL,CAV_2_HEATC_CONTROLLER,Sensor,1
 Non-Parent Node Connection,CAV_2_HEATCDEMAND INLET NODE,CONTROLLER:WATERCOIL,CAV_2_HEATC_CONTROLLER,Actuator,1
 Non-Parent Node Connection,VAV_1_COOLC-VAV_1_HEATCNODE,CONTROLLER:WATERCOIL,VAV_1_COOLC_CONTROLLER,Sensor,1
 Non-Parent Node Connection,VAV_1_COOLCDEMAND INLET NODE,CONTROLLER:WATERCOIL,VAV_1_COOLC_CONTROLLER,Actuator,1
 Non-Parent Node Connection,VAV_1_HEATC-VAV_1_FANNODE,CONTROLLER:WATERCOIL,VAV_1_HEATC_CONTROLLER,Sensor,1
 Non-Parent Node Connection,VAV_1_HEATCDEMAND INLET NODE,CONTROLLER:WATERCOIL,VAV_1_HEATC_CONTROLLER,Actuator,1
 Non-Parent Node Connection,VAV_2_COOLC-VAV_2_HEATCNODE,CONTROLLER:WATERCOIL,VAV_2_COOLC_CONTROLLER,Sensor,1
 Non-Parent Node Connection,VAV_2_COOLCDEMAND INLET NODE,CONTROLLER:WATERCOIL,VAV_2_COOLC_CONTROLLER,Actuator,1
 Non-Parent Node Connection,VAV_2_HEATC-VAV_2_FANNODE,CONTROLLER:WATERCOIL,VAV_2_HEATC_CONTROLLER,Sensor,1
 Non-Parent Node Connection,VAV_2_HEATCDEMAND INLET NODE,CONTROLLER:WATERCOIL,VAV_2_HEATC_CONTROLLER,Actuator,1
 Non-Parent Node Connection,CAV_1_OA-CAV_1 HUMIDIFIERNODE,CONTROLLER:OUTDOORAIR,CAV_1_OA_CONTROLLER,Sensor,1
 Non-Parent Node Connection,CAV_1_OAINLET NODE,CONTROLLER:OUTDOORAIR,CAV_1_OA_CONTROLLER,Actuator,1
 Non-Parent Node Connection,CAV_1_OARELIEF NODE,CONTROLLER:OUTDOORAIR,CAV_1_OA_CONTROLLER,Actuator,1
 Non-Parent Node Connection,CAV_1 SUPPLY EQUIPMENT INLET NODE,CONTROLLER:OUTDOORAIR,CAV_1_OA_CONTROLLER,Sensor,1
 Non-Parent Node Connection,CAV_2_OA-CAV_2 HUMIDIFIERNODE,CONTROLLER:OUTDOORAIR,CAV_2_OA_CONTROLLER,Sensor,1
 Non-Parent Node Connection,CAV_2_OAINLET NODE,CONTROLLER:OUTDOORAIR,CAV_2_OA_CONTROLLER,Actuator,1
 Non-Parent Node Connection,CAV_2_OARELIEF NODE,CONTROLLER:OUTDOORAIR,CAV_2_OA_CONTROLLER,Actuator,1
 Non-Parent Node Connection,CAV_2 SUPPLY EQUIPMENT INLET NODE,CONTROLLER:OUTDOORAIR,CAV_2_OA_CONTROLLER,Sensor,1
 Non-Parent Node Connection,VAV_1_OA-VAV_1_COOLCNODE,CONTROLLER:OUTDOORAIR,VAV_1_OA_CONTROLLER,Sensor,1
 Non-Parent Node Connection,VAV_1_OAINLET NODE,CONTROLLER:OUTDOORAIR,VAV_1_OA_CONTROLLER,Actuator,1
 Non-Parent Node Connection,VAV_1_OARELIEF NODE,CONTROLLER:OUTDOORAIR,VAV_1_OA_CONTROLLER,Actuator,1
 Non-Parent Node Connection,VAV_1 SUPPLY EQUIPMENT INLET NODE,CONTROLLER:OUTDOORAIR,VAV_1_OA_CONTROLLER,Sensor,1
 Non-Parent Node Connection,VAV_2_OA-VAV_2_COOLCNODE,CONTROLLER:OUTDOORAIR,VAV_2_OA_CONTROLLER,Sensor,1
 Non-Parent Node Connection,VAV_2_OAINLET NODE,CONTROLLER:OUTDOORAIR,VAV_2_OA_CONTROLLER,Actuator,1
 Non-Parent Node Connection,VAV_2_OARELIEF NODE,CONTROLLER:OUTDOORAIR,VAV_2_OA_CONTROLLER,Actuator,1
 Non-Parent Node Connection,VAV_2 SUPPLY EQUIPMENT INLET NODE,CONTROLLER:OUTDOORAIR,VAV_2_OA_CONTROLLER,Sensor,1
 Non-Parent Node Connection,CAV_1_OA-CAV_1 HUMIDIFIERNODE,HUMIDIFIER:STEAM:ELECTRIC,CAV_1 HUMIDIFIER,Inlet,1
 Non-Parent Node Connection,CAV_1 HUMIDIFIER-CAV_1_COOLCNODE,HUMIDIFIER:STEAM:ELECTRIC,CAV_1 HUMIDIFIER,Outlet,1
 Non-Parent Node Connection,CAV_2_OA-CAV_2 HUMIDIFIERNODE,HUMIDIFIER:STEAM:ELECTRIC,CAV_2 HUMIDIFIER,Inlet,1
 Non-Parent Node Connection,CAV_2 HUMIDIFIER-CAV_2_COOLCNODE,HUMIDIFIER:STEAM:ELECTRIC,CAV_2 HUMIDIFIER,Outlet,1
 Non-Parent Node Connection,COOLSYS1 DEMAND BYPASS PIPE INLET NODE,PIPE:ADIABATIC,COOLSYS1 DEMAND BYPASS PIPE,Inlet,1
 Non-Parent Node Connection,COOLSYS1 DEMAND BYPASS PIPE OUTLET NODE,PIPE:ADIABATIC,COOLSYS1 DEMAND BYPASS PIPE,Outlet,1
 Non-Parent Node Connection,COOLSYS1 DEMAND INLET NODE,PIPE:ADIABATIC,COOLSYS1 DEMAND INLET PIPE,Inlet,1
 Non-Parent Node Connection,COOLSYS1 DEMAND INLET PIPE-COOLSYS1 DEMAND MIXER,PIPE:ADIABATIC,COOLSYS1 DEMAND INLET PIPE,Outlet,1
 Non-Parent Node Connection,COOLSYS1 DEMAND MIXER-COOLSYS1 DEMAND OUTLET PIPE,PIPE:ADIABATIC,COOLSYS1 DEMAND OUTLET PIPE,Inlet,1
 Non-Parent Node Connection,COOLSYS1 DEMAND OUTLET NODE,PIPE:ADIABATIC,COOLSYS1 DEMAND OUTLET PIPE,Outlet,1
 Non-Parent Node Connection,COOLSYS1 SUPPLY EQUIP BYPASS INLET NODE,PIPE:ADIABATIC,COOLSYS1 SUPPLY EQUIPMENT BYPASS PIPE,Inlet,1
 Non-Parent Node Connection,COOLSYS1 SUPPLY EQUIP BYPASS OUTLET NODE,PIPE:ADIABATIC,COOLSYS1 SUPPLY EQUIPMENT BYPASS PIPE,Outlet,1
 Non-Parent Node Connection,COOLSYS1 SUPPLY MIXER-COOLSYS1 SUPPLY OUTLET PIPE,PIPE:ADIABATIC,COOLSYS1 SUPPLY OUTLET PIPE,Inlet,1
 Non-Parent Node Connection,COOLSYS1 SUPPLY OUTLET NODE,PIPE:ADIABATIC,COOLSYS1 SUPPLY OUTLET PIPE,Outlet,1
 Non-Parent Node Connection,HEATSYS1 DEMAND BYPASS PIPE INLET NODE,PIPE:ADIABATIC,HEATSYS1 DEMAND BYPASS PIPE,Inlet,1
 Non-Parent Node Connection,HEATSYS1 DEMAND BYPASS PIPE OUTLET NODE,PIPE:ADIABATIC,HEATSYS1 DEMAND BYPASS PIPE,Outlet,1
 Non-Parent Node Connection,HEATSYS1 DEMAND INLET NODE,PIPE:ADIABATIC,HEATSYS1 DEMAND INLET PIPE,Inlet,1
 Non-Parent Node Connection,HEATSYS1 DEMAND INLET PIPE-HEATSYS1 DEMAND MIXER,PIPE:ADIABATIC,HEATSYS1 DEMAND INLET PIPE,Outlet,1
 Non-Parent Node Connection,HEATSYS1 DEMAND MIXER-HEATSYS1 DEMAND OUTLET PIPE,PIPE:ADIABATIC,HEATSYS1 DEMAND OUTLET PIPE,Inlet,1
 Non-Parent Node Connection,HEATSYS1 DEMAND OUTLET NODE,PIPE:ADIABATIC,HEATSYS1 DEMAND OUTLET PIPE,Outlet,1
 Non-Parent Node Connection,HEATSYS1 SUPPLY EQUIP BYPASS INLET NODE,PIPE:ADIABATIC,HEATSYS1 SUPPLY EQUIPMENT BYPASS PIPE,Inlet,1
 Non-Parent Node Connection,HEATSYS1 SUPPLY EQUIP BYPASS OUTLET NODE,PIPE:ADIABATIC,HEATSYS1 SUPPLY EQUIPMENT BYPASS PIPE,Outlet,1
 Non-Parent Node Connection,HEATSYS1 SUPPLY MIXER-HEATSYS1 SUPPLY OUTLET PIPE,PIPE:ADIABATIC,HEATSYS1 SUPPLY OUTLET PIPE,Inlet,1
 Non-Parent Node Connection,HEATSYS1 SUPPLY OUTLET NODE,PIPE:ADIABATIC,HEATSYS1 SUPPLY OUTLET PIPE,Outlet,1
 Non-Parent Node Connection,TOWERWATERSYS DEMAND BYPASS PIPE INLET NODE,PIPE:ADIABATIC,TOWERWATERSYS DEMAND BYPASS PIPE,Inlet,1
 Non-Parent Node Connection,TOWERWATERSYS DEMAND BYPASS PIPE OUTLET NODE,PIPE:ADIABATIC,TOWERWATERSYS DEMAND BYPASS PIPE,Outlet,1
 Non-Parent Node Connection,TOWERWATERSYS DEMAND INLET NODE,PIPE:ADIABATIC,TOWERWATERSYS DEMAND INLET PIPE,Inlet,1
 Non-Parent Node Connection,TOWERWATERSYS DEMAND INLET PIPE-TOWERWATERSYS DEMAND MIXER,PIPE:ADIABATIC,TOWERWATERSYS DEMAND INLET PIPE,Outlet,1
 Non-Parent Node Connection,TOWERWATERSYS DEMAND MIXER-TOWERWATERSYS DEMAND OUTLET PIPE,PIPE:ADIABATIC,TOWERWATERSYS DEMAND OUTLET PIPE,Inlet,1
 Non-Parent Node Connection,TOWERWATERSYS DEMAND OUTLET NODE,PIPE:ADIABATIC,TOWERWATERSYS DEMAND OUTLET PIPE,Outlet,1
 Non-Parent Node Connection,TOWERWATERSYS SUPPLY EQUIP BYPASS INLET NODE,PIPE:ADIABATIC,TOWERWATERSYS SUPPLY EQUIPMENT BYPASS PIPE,Inlet,1
 Non-Parent Node Connection,TOWERWATERSYS SUPPLY EQUIP BYPASS OUTLET NODE,PIPE:ADIABATIC,TOWERWATERSYS SUPPLY EQUIPMENT BYPASS PIPE,Outlet,1
 Non-Parent Node Connection,TOWERWATERSYS SUPPLY MIXER-TOWERWATERSYS SUPPLY OUTLET PIPE,PIPE:ADIABATIC,TOWERWATERSYS SUPPLY OUTLET PIPE,Inlet,1
 Non-Parent Node Connection,TOWERWATERSYS SUPPLY OUTLET NODE,PIPE:ADIABATIC,TOWERWATERSYS SUPPLY OUTLET PIPE,Outlet,1
 Non-Parent Node Connection,SWHSYS1 DEMAND BYPASS PIPE INLET NODE,PIPE:ADIABATIC,SWHSYS1 DEMAND BYPASS PIPE,Inlet,1
 Non-Parent Node Connection,SWHSYS1 DEMAND BYPASS PIPE OUTLET NODE,PIPE:ADIABATIC,SWHSYS1 DEMAND BYPASS PIPE,Outlet,1
 Non-Parent Node Connection,SWHSYS1 DEMAND INLET NODE,PIPE:ADIABATIC,SWHSYS1 DEMAND INLET PIPE,Inlet,1
 Non-Parent Node Connection,SWHSYS1 DEMAND INLET PIPE-SWHSYS1 DEMAND MIXER,PIPE:ADIABATIC,SWHSYS1 DEMAND INLET PIPE,Outlet,1
 Non-Parent Node Connection,SWHSYS1 DEMAND MIXER-SWHSYS1 DEMAND OUTLET PIPE,PIPE:ADIABATIC,SWHSYS1 DEMAND OUTLET PIPE,Inlet,1
 Non-Parent Node Connection,SWHSYS1 DEMAND OUTLET NODE,PIPE:ADIABATIC,SWHSYS1 DEMAND OUTLET PIPE,Outlet,1
 Non-Parent Node Connection,SWHSYS1 SUPPLY EQUIP BYPASS INLET NODE,PIPE:ADIABATIC,SWHSYS1 SUPPLY EQUIPMENT BYPASS PIPE,Inlet,1
 Non-Parent Node Connection,SWHSYS1 SUPPLY EQUIP BYPASS OUTLET NODE,PIPE:ADIABATIC,SWHSYS1 SUPPLY EQUIPMENT BYPASS PIPE,Outlet,1
 Non-Parent Node Connection,SWHSYS1 SUPPLY MIXER-SWHSYS1 SUPPLY OUTLET PIPE,PIPE:ADIABATIC,SWHSYS1 SUPPLY OUTLET PIPE,Inlet,1
 Non-Parent Node Connection,SWHSYS1 SUPPLY OUTLET NODE,PIPE:ADIABATIC,SWHSYS1 SUPPLY OUTLET PIPE,Outlet,1
 Non-Parent Node Connection,COOLSYS1 PUMP-COOLSYS1 CHILLERNODE,CHILLER:ELECTRIC:REFORMULATEDEIR,COOLSYS1 CHILLER,Inlet,1
 Non-Parent Node Connection,COOLSYS1 SUPPLY EQUIPMENT OUTLET NODE,CHILLER:ELECTRIC:REFORMULATEDEIR,COOLSYS1 CHILLER,Outlet,1
 Non-Parent Node Connection,COOLSYS1 CHILLER WATER INLET NODE,CHILLER:ELECTRIC:REFORMULATEDEIR,COOLSYS1 CHILLER,Inlet,2
 Non-Parent Node Connection,COOLSYS1 CHILLER WATER OUTLET NODE,CHILLER:ELECTRIC:REFORMULATEDEIR,COOLSYS1 CHILLER,Outlet,2
 Non-Parent Node Connection,HEATSYS1 PUMP-HEATSYS1 BOILERNODE,BOILER:HOTWATER,HEATSYS1 BOILER,Inlet,1
 Non-Parent Node Connection,HEATSYS1 SUPPLY EQUIPMENT OUTLET NODE,BOILER:HOTWATER,HEATSYS1 BOILER,Outlet,1
 Non-Parent Node Connection,TOWERWATERSYS PUMP-TOWERWATERSYS COOLTOWERNODE,COOLINGTOWER:SINGLESPEED,TOWERWATERSYS COOLTOWER,Inlet,1
 Non-Parent Node Connection,TOWERWATERSYS SUPPLY EQUIPMENT OUTLET NODE,COOLINGTOWER:SINGLESPEED,TOWERWATERSYS COOLTOWER,Outlet,1
 Non-Parent Node Connection,TOWERWATERSYS COOLTOWER OA REF NODE,COOLINGTOWER:SINGLESPEED,TOWERWATERSYS COOLTOWER,OutsideAirReference,1
 Non-Parent Node Connection,COOLSYS1 SUPPLY INLET NODE,PUMP:VARIABLESPEED,COOLSYS1 PUMP,Inlet,1
 Non-Parent Node Connection,COOLSYS1 PUMP-COOLSYS1 CHILLERNODEVIACONNECTOR,PUMP:VARIABLESPEED,COOLSYS1 PUMP,Outlet,1
 Non-Parent Node Connection,HEATSYS1 SUPPLY INLET NODE,PUMP:VARIABLESPEED,HEATSYS1 PUMP,Inlet,1
 Non-Parent Node Connection,HEATSYS1 PUMP-HEATSYS1 BOILERNODEVIACONNECTOR,PUMP:VARIABLESPEED,HEATSYS1 PUMP,Outlet,1
 Non-Parent Node Connection,SWHSYS1 SUPPLY INLET NODE,PUMP:VARIABLESPEED,SWHSYS1 PUMP,Inlet,1
 Non-Parent Node Connection,SWHSYS1 PUMP-SWHSYS1 WATER HEATERNODEVIACONNECTOR,PUMP:VARIABLESPEED,SWHSYS1 PUMP,Outlet,1
 Non-Parent Node Connection,TOWERWATERSYS SUPPLY INLET NODE,PUMP:CONSTANTSPEED,TOWERWATERSYS PUMP,Inlet,1
 Non-Parent Node Connection,TOWERWATERSYS PUMP-TOWERWATERSYS COOLTOWERNODEVIACONNECTOR,PUMP:CONSTANTSPEED,TOWERWATERSYS PUMP,Outlet,1
