Program Version,EnergyPlus-Windows-64 8.0.0.008, YMD=2013.06.10 17:07
! <Version>, Version ID
 Version, 8.0
! <Timesteps per Hour>, #TimeSteps, Minutes per TimeStep {minutes}
 Timesteps per Hour,  4, 15
! <System Convergence Limits>, Minimum System TimeStep {minutes}, Max HVAC Iterations,  Minimum Plant Iterations, Maximum Plant Iterations
 System Convergence Limits, 2, 25, 2, 8
! <Simulation Control>, Do Zone Sizing, Do System Sizing, Do Plant Sizing, Do Design Days, Do Weather Simulation
 Simulation Control, Yes, Yes, Yes, No, Yes
! <Output Reporting Tolerances>, Tolerance for Time Heating Setpoint Not Met, Tolerance for Zone Cooling Setpoint Not Met Time
 Output Reporting Tolerances, 0.556, 0.556, 
! <Site:GroundTemperature:BuildingSurface>, Months From Jan to Dec {C}
 Site:GroundTemperature:BuildingSurface,  19.53,  19.50,  19.54,  19.60,  20.00,  21.64,  22.23,  22.38,  21.45,  20.12,  19.80,  19.63
! <Site:GroundTemperature:FCfactorMethod>, Months From Jan to Dec {C}
 Site:GroundTemperature:FCfactorMethod,  -1.89,  -3.06,  -0.99,   2.23,  10.68,  17.20,  21.60,  22.94,  20.66,  15.60,   8.83,   2.56
! <Site:GroundTemperature:Shallow>, Months From Jan to Dec {C}
 Site:GroundTemperature:Shallow,  13.00,  13.00,  13.00,  13.00,  13.00,  13.00,  13.00,  13.00,  13.00,  13.00,  13.00,  13.00
! <Site:GroundTemperature:Deep>, Months From Jan to Dec {C}
 Site:GroundTemperature:Deep,  16.00,  16.00,  16.00,  16.00,  16.00,  16.00,  16.00,  16.00,  16.00,  16.00,  16.00,  16.00
! <Site:GroundReflectance>, Months From Jan to Dec {dimensionless}
 Site:GroundReflectance,  0.20,  0.20,  0.20,  0.20,  0.20,  0.20,  0.20,  0.20,  0.20,  0.20,  0.20,  0.20
! <Site:GroundReflectance:SnowModifier>, Normal, Daylighting {dimensionless}
 Site:GroundReflectance:SnowModifier,   1.000,   1.000
! <Site:GroundReflectance:Snow>, Months From Jan to Dec {dimensionless}
 Site:GroundReflectance:Snow,  0.20,  0.20,  0.20,  0.20,  0.20,  0.20,  0.20,  0.20,  0.20,  0.20,  0.20,  0.20
! <Site:GroundReflectance:Snow:Daylighting>, Months From Jan to Dec {dimensionless}
 Site:GroundReflectance:Snow:Daylighting,  0.20,  0.20,  0.20,  0.20,  0.20,  0.20,  0.20,  0.20,  0.20,  0.20,  0.20,  0.20
! <Environment:Weather Station>,Wind Sensor Height Above Ground {m},Wind Speed Profile Exponent {},Wind Speed Profile Boundary Layer Thickness {m},Air Temperature Sensor Height Above Ground {m},Wind Speed Modifier Coefficient [Internal],Temperature Modifier Coefficient [Internal]
Environment:Weather Station,10.000,0.140,270.000,1.500,1.586,9.750E-003
! <Site:Location>, Location Name, Latitude {N+/S- Deg}, Longitude {E+/W- Deg},  Time Zone Number {GMT+/-}, Elevation {m},  Standard Pressure at Elevation {Pa}, Standard RhoAir at Elevation
Site:Location,Chicago Ohare Intl Ap IL USA TMY3 WMO#=725300,41.98,-87.92,-6.00,201.00,98934,1.1759
! <Building Information>, Building Name,North Axis {deg},Terrain,  Loads Convergence Tolerance Value,Temperature Convergence Tolerance Value,  Solar Distribution,Maximum Number of Warmup Days,Minimum Number of Warmup Days
 Building Information,Ref Bldg Secondary School New2004_v1.3_5.0,0.000,City,4.00000E-002,0.20000,FullInteriorAndExterior,25,6
! <Inside Convection Algorithm>, Algorithm {Simple | TARP | CeilingDiffuser | AdaptiveConvectionAlgorithm}
Inside Convection Algorithm,TARP
! <Outside Convection Algorithm>, Algorithm {SimpleCombined | TARP | MoWitt | DOE-2 | AdaptiveConvectionAlgorithm}
Outside Convection Algorithm,DOE-2
! <Sky Radiance Distribution>, Value {Anisotropic}
Sky Radiance Distribution,Anisotropic
! <Zone Air Solution Algorithm>, Value {ThirdOrderBackwardDifference | AnalyticalSolution | EulerMethod}
 Zone Air Solution Algorithm, AnalyticalSolution
! <Zone Air Contaminant Balance Simulation>, Simulation {Yes/No}, Carbon Dioxide Concentration
 Zone Air Carbon Dioxide Balance Simulation, No,N/A
! <Zone Air Contaminant Balance Simulation>, Simulation {Yes/No}, Generic Contaminant Concentration
 Zone Air Generic Contaminant Balance Simulation, No,N/A
! <Environment:Site Atmospheric Variation>,Wind Speed Profile Exponent {},Wind Speed Profile Boundary Layer Thickness {m},Air Temperature Gradient Coefficient {K/m}
Environment:Site Atmospheric Variation,0.330,460.000,6.500000E-003
! <SurfaceGeometry>,Starting Corner,Vertex Input Direction,Coordinate System,Daylight Reference Point Coordinate System,Rectangular (Simple) Surface Coordinate System
 Surface Geometry,UpperLeftCorner,Counterclockwise,RelativeCoordinateSystem,RelativeCoordinateSystem,RelativeToZoneOrigin
! <Surface Heat Transfer Algorithm>, Value {CTF - ConductionTransferFunction | EMPD - MoisturePenetrationDepthConductionTransferFunction | CondFD - ConductionFiniteDifference | HAMT - CombinedHeatAndMoistureFiniteElement} - Description,Inside Surface Max Temperature Limit{C}, Surface Convection Coefficient Lower Limit {W/m2-K}, Surface Convection Coefficient Upper Limit {W/m2-K}
Surface Heat Transfer Algorithm, CTF - ConductionTransferFunction,200,0.10,1000.0
! <Shading Summary>, Number of Fixed Detached Shades, Number of Building Detached Shades, Number of Attached Shades
 Shading Summary,0,0,0
! <Zone Summary>, Number of Zones, Number of Zone Surfaces, Number of SubSurfaces
 Zone Summary,46,527,157
! <Zone Information>,Zone Name,North Axis {deg},Origin X-Coordinate {m},Origin Y-Coordinate {m},Origin Z-Coordinate {m},Centroid X-Coordinate {m},Centroid Y-Coordinate {m},Centroid Z-Coordinate {m},Type,Zone Multiplier,Zone List Multiplier,Minimum X {m},Maximum X {m},Minimum Y {m},Maximum Y {m},Minimum Z {m},Maximum Z {m},Ceiling Height {m},Volume {m3},Zone Inside Convection Algorithm {Simple-Detailed-CeilingDiffuser-TrombeWall},Zone Outside Convection Algorithm {Simple-Detailed-Tarp-MoWitt-DOE-2-BLAST}, Floor Area {m2},Exterior Gross Wall Area {m2},Exterior Net Wall Area {m2},Exterior Window Area {m2}, Number of Surfaces, Number of SubSurfaces, Number of Shading SubSurfaces,  Part of Total Building Area
 Zone Information, AUDITORIUM_ZN_1_FLR_1,0.0,79.00,75.00,0.00,98.00,88.00,4.00,1,1,1,79.00,117.00,75.00,101.00,0.00,8.00,8.00,7904.00,TARP,DOE-2,988.00,512.00,405.60,106.40,10,2,0,Yes
 Zone Information, AUX_GYM_ZN_1_FLR_1,0.0,117.00,14.00,0.00,129.00,40.00,4.00,1,1,1,117.00,141.00,14.00,66.00,0.00,8.00,8.00,9984.00,TARP,DOE-2,1248.00,608.00,395.20,266.35,10,40,0,Yes
 Zone Information, BATHROOMS_ZN_1_FLR_1,0.0,64.00,90.00,0.00,71.50,97.00,2.00,1,1,1,64.00,79.00,90.00,104.00,0.00,4.00,4.00,840.00,TARP,DOE-2,210.00,116.00,90.80,25.20,8,2,0,Yes
 Zone Information, BATHROOMS_ZN_1_FLR_2,0.0,64.00,90.00,4.00,71.50,97.00,6.00,1,1,1,64.00,79.00,90.00,104.00,4.00,8.00,4.00,840.00,TARP,DOE-2,210.00,116.00,90.80,25.20,8,2,0,Yes
 Zone Information, CAFETERIA_ZN_1_FLR_1,0.0,117.00,75.00,0.00,129.00,88.00,2.00,1,1,1,117.00,141.00,75.00,101.00,0.00,4.00,4.00,2496.00,TARP,DOE-2,624.00,200.00,130.00,70.00,6,2,0,Yes
 Zone Information, CORNER_CLASS_1_POD_1_ZN_1_FLR_1,0.0,0.00,0.00,0.00,5.50,4.50,2.00,1,1,1,0.00,11.00,0.00,9.00,0.00,4.00,4.00,396.00,TARP,DOE-2,99.00,80.00,52.00,28.00,6,2,0,Yes
 Zone Information, CORNER_CLASS_1_POD_1_ZN_1_FLR_2,0.0,0.00,0.00,4.00,5.50,4.50,6.00,1,1,1,0.00,11.00,0.00,9.00,4.00,8.00,4.00,396.00,TARP,DOE-2,99.00,80.00,52.00,28.00,6,2,0,Yes
 Zone Information, CORNER_CLASS_1_POD_2_ZN_1_FLR_1,0.0,0.00,40.00,0.00,5.50,44.50,2.00,1,1,1,0.00,11.00,40.00,49.00,0.00,4.00,4.00,396.00,TARP,DOE-2,99.00,80.00,52.00,28.00,6,2,0,Yes
 Zone Information, CORNER_CLASS_1_POD_2_ZN_1_FLR_2,0.0,0.00,40.00,4.00,5.50,44.50,6.00,1,1,1,0.00,11.00,40.00,49.00,4.00,8.00,4.00,396.00,TARP,DOE-2,99.00,80.00,52.00,28.00,6,2,0,Yes
 Zone Information, CORNER_CLASS_1_POD_3_ZN_1_FLR_1,0.0,0.00,81.00,0.00,5.50,85.50,2.00,1,1,1,0.00,11.00,81.00,90.00,0.00,4.00,4.00,396.00,TARP,DOE-2,99.00,80.00,52.00,28.00,6,2,0,Yes
 Zone Information, CORNER_CLASS_1_POD_3_ZN_1_FLR_2,0.0,0.00,81.00,4.00,5.50,85.50,6.00,1,1,1,0.00,11.00,81.00,90.00,4.00,8.00,4.00,396.00,TARP,DOE-2,99.00,80.00,52.00,28.00,6,2,0,Yes
 Zone Information, CORNER_CLASS_2_POD_1_ZN_1_FLR_1,0.0,0.00,14.00,0.00,5.50,18.50,2.00,1,1,1,0.00,11.00,14.00,23.00,0.00,4.00,4.00,396.00,TARP,DOE-2,99.00,80.00,52.00,28.00,6,2,0,Yes
 Zone Information, CORNER_CLASS_2_POD_1_ZN_1_FLR_2,0.0,0.00,14.00,4.00,5.50,18.50,6.00,1,1,1,0.00,11.00,14.00,23.00,4.00,8.00,4.00,396.00,TARP,DOE-2,99.00,80.00,52.00,28.00,6,2,0,Yes
 Zone Information, CORNER_CLASS_2_POD_2_ZN_1_FLR_1,0.0,0.00,54.00,0.00,5.50,58.50,2.00,1,1,1,0.00,11.00,54.00,63.00,0.00,4.00,4.00,396.00,TARP,DOE-2,99.00,80.00,52.00,28.00,6,2,0,Yes
 Zone Information, CORNER_CLASS_2_POD_2_ZN_1_FLR_2,0.0,0.00,54.00,4.00,5.50,58.50,6.00,1,1,1,0.00,11.00,54.00,63.00,4.00,8.00,4.00,396.00,TARP,DOE-2,99.00,80.00,52.00,28.00,6,2,0,Yes
 Zone Information, CORNER_CLASS_2_POD_3_ZN_1_FLR_1,0.0,0.00,95.00,0.00,5.50,99.50,2.00,1,1,1,0.00,11.00,95.00,104.00,0.00,4.00,4.00,396.00,TARP,DOE-2,99.00,80.00,52.00,28.00,6,2,0,Yes
 Zone Information, CORNER_CLASS_2_POD_3_ZN_1_FLR_2,0.0,0.00,95.00,4.00,5.50,99.50,6.00,1,1,1,0.00,11.00,95.00,104.00,4.00,8.00,4.00,396.00,TARP,DOE-2,99.00,80.00,52.00,28.00,6,2,0,Yes
 Zone Information, CORRIDOR_POD_1_ZN_1_FLR_1,0.0,0.00,9.00,0.00,32.00,11.50,2.00,1,1,1,0.00,64.00,9.00,14.00,0.00,4.00,4.00,1280.00,TARP,DOE-2,320.00,20.00,13.00,7.00,8,1,0,Yes
 Zone Information, CORRIDOR_POD_1_ZN_1_FLR_2,0.0,0.00,9.00,4.00,32.00,11.50,6.00,1,1,1,0.00,64.00,9.00,14.00,4.00,8.00,4.00,1280.00,TARP,DOE-2,320.00,20.00,13.00,7.00,8,1,0,Yes
 Zone Information, CORRIDOR_POD_2_ZN_1_FLR_1,0.0,0.00,49.00,0.00,32.00,51.50,2.00,1,1,1,0.00,64.00,49.00,54.00,0.00,4.00,4.00,1280.00,TARP,DOE-2,320.00,20.00,13.00,7.00,8,1,0,Yes
 Zone Information, CORRIDOR_POD_2_ZN_1_FLR_2,0.0,0.00,49.00,4.00,32.00,51.50,6.00,1,1,1,0.00,64.00,49.00,54.00,4.00,8.00,4.00,1280.00,TARP,DOE-2,320.00,20.00,13.00,7.00,8,1,0,Yes
 Zone Information, CORRIDOR_POD_3_ZN_1_FLR_1,0.0,0.00,90.00,0.00,32.00,92.50,2.00,1,1,1,0.00,64.00,90.00,95.00,0.00,4.00,4.00,1280.00,TARP,DOE-2,320.00,20.00,13.00,7.00,8,1,0,Yes
 Zone Information, CORRIDOR_POD_3_ZN_1_FLR_2,0.0,0.00,90.00,4.00,32.00,92.50,6.00,1,1,1,0.00,64.00,90.00,95.00,4.00,8.00,4.00,1280.00,TARP,DOE-2,320.00,20.00,13.00,7.00,8,1,0,Yes
 Zone Information, GYM_ZN_1_FLR_1,0.0,79.00,14.00,0.00,98.00,40.00,4.00,1,1,1,79.00,117.00,14.00,66.00,0.00,8.00,8.00,15808.00,TARP,DOE-2,1976.00,0.00,0.00,80.28,10,54,0,Yes
 Zone Information, KITCHEN_ZN_1_FLR_1,0.0,117.00,66.00,0.00,129.00,70.50,2.00,1,1,1,117.00,141.00,66.00,75.00,0.00,4.00,4.00,864.00,TARP,DOE-2,216.00,36.00,23.40,12.60,6,1,0,Yes
 Zone Information, LIBRARY_MEDIA_CENTER_ZN_1_FLR_2,0.0,117.00,66.00,4.00,129.00,83.50,6.00,1,1,1,117.00,141.00,66.00,101.00,4.00,8.00,4.00,3360.00,TARP,DOE-2,840.00,236.00,152.99,83.01,8,2,0,Yes
 Zone Information, LOBBY_ZN_1_FLR_1,0.0,64.00,0.00,0.00,71.50,7.00,2.00,1,1,1,64.00,79.00,0.00,14.00,0.00,4.00,4.00,840.00,TARP,DOE-2,210.00,60.00,39.00,21.00,7,1,0,Yes
 Zone Information, LOBBY_ZN_1_FLR_2,0.0,64.00,0.00,4.00,71.50,7.00,6.00,1,1,1,64.00,79.00,0.00,14.00,4.00,8.00,4.00,840.00,TARP,DOE-2,210.00,60.00,39.00,21.00,7,1,0,Yes
 Zone Information, MAIN_CORRIDOR_ZN_1_FLR_1,0.0,64.00,14.00,0.00,71.50,52.00,2.00,1,1,1,64.00,79.00,14.00,90.00,0.00,4.00,4.00,4560.00,TARP,DOE-2,1140.00,200.00,151.00,49.00,14,2,0,Yes
 Zone Information, MAIN_CORRIDOR_ZN_1_FLR_2,0.0,64.00,14.00,4.00,71.50,52.00,6.00,1,1,1,64.00,79.00,14.00,90.00,4.00,8.00,4.00,4560.00,TARP,DOE-2,1140.00,200.00,151.00,49.00,14,2,0,Yes
 Zone Information, MECH_ZN_1_FLR_1,0.0,79.00,66.00,0.00,98.00,70.50,2.00,1,1,1,79.00,117.00,66.00,75.00,0.00,4.00,4.00,1368.00,TARP,DOE-2,342.00,0.00,0.00,0.00,6,0,0,Yes
 Zone Information, MECH_ZN_1_FLR_2,0.0,79.00,66.00,4.00,98.00,70.50,6.00,1,1,1,79.00,117.00,66.00,75.00,4.00,8.00,4.00,1368.00,TARP,DOE-2,342.00,0.00,0.00,0.00,6,0,0,Yes
 Zone Information, MULT_CLASS_1_POD_1_ZN_1_FLR_1,0.0,11.00,0.00,0.00,37.50,4.50,2.00,1,1,1,11.00,64.00,0.00,9.00,0.00,4.00,4.00,1908.00,TARP,DOE-2,477.00,212.00,137.80,74.20,6,1,0,Yes
 Zone Information, MULT_CLASS_1_POD_1_ZN_1_FLR_2,0.0,11.00,0.00,4.00,37.50,4.50,6.00,1,1,1,11.00,64.00,0.00,9.00,4.00,8.00,4.00,1908.00,TARP,DOE-2,477.00,212.00,137.80,74.20,6,1,0,Yes
 Zone Information, MULT_CLASS_1_POD_2_ZN_1_FLR_1,0.0,11.00,40.00,0.00,37.50,44.50,2.00,1,1,1,11.00,64.00,40.00,49.00,0.00,4.00,4.00,1908.00,TARP,DOE-2,477.00,212.00,137.80,74.20,6,1,0,Yes
 Zone Information, MULT_CLASS_1_POD_2_ZN_1_FLR_2,0.0,11.00,40.00,4.00,37.50,44.50,6.00,1,1,1,11.00,64.00,40.00,49.00,4.00,8.00,4.00,1908.00,TARP,DOE-2,477.00,212.00,137.80,74.20,6,1,0,Yes
 Zone Information, MULT_CLASS_1_POD_3_ZN_1_FLR_1,0.0,11.00,81.00,0.00,37.50,85.50,2.00,1,1,1,11.00,64.00,81.00,90.00,0.00,4.00,4.00,1908.00,TARP,DOE-2,477.00,212.00,137.80,74.20,6,1,0,Yes
 Zone Information, MULT_CLASS_1_POD_3_ZN_1_FLR_2,0.0,11.00,81.00,4.00,37.50,85.50,6.00,1,1,1,11.00,64.00,81.00,90.00,4.00,8.00,4.00,1908.00,TARP,DOE-2,477.00,212.00,137.80,74.20,6,1,0,Yes
 Zone Information, MULT_CLASS_2_POD_1_ZN_1_FLR_1,0.0,11.00,14.00,0.00,37.50,18.50,2.00,1,1,1,11.00,64.00,14.00,23.00,0.00,4.00,4.00,1908.00,TARP,DOE-2,477.00,212.00,137.80,74.20,6,1,0,Yes
 Zone Information, MULT_CLASS_2_POD_1_ZN_1_FLR_2,0.0,11.00,14.00,4.00,37.50,18.50,6.00,1,1,1,11.00,64.00,14.00,23.00,4.00,8.00,4.00,1908.00,TARP,DOE-2,477.00,212.00,137.80,74.20,6,1,0,Yes
 Zone Information, MULT_CLASS_2_POD_2_ZN_1_FLR_1,0.0,11.00,54.00,0.00,37.50,58.50,2.00,1,1,1,11.00,64.00,54.00,63.00,0.00,4.00,4.00,1908.00,TARP,DOE-2,477.00,212.00,137.80,74.20,6,1,0,Yes
 Zone Information, MULT_CLASS_2_POD_2_ZN_1_FLR_2,0.0,11.00,54.00,4.00,37.50,58.50,6.00,1,1,1,11.00,64.00,54.00,63.00,4.00,8.00,4.00,1908.00,TARP,DOE-2,477.00,212.00,137.80,74.20,6,1,0,Yes
 Zone Information, MULT_CLASS_2_POD_3_ZN_1_FLR_1,0.0,11.00,95.00,0.00,37.50,99.50,2.00,1,1,1,11.00,64.00,95.00,104.00,0.00,4.00,4.00,1908.00,TARP,DOE-2,477.00,212.00,137.80,74.20,6,1,0,Yes
 Zone Information, MULT_CLASS_2_POD_3_ZN_1_FLR_2,0.0,11.00,95.00,4.00,37.50,99.50,6.00,1,1,1,11.00,64.00,95.00,104.00,4.00,8.00,4.00,1908.00,TARP,DOE-2,477.00,212.00,137.80,74.20,6,1,0,Yes
 Zone Information, OFFICES_ZN_1_FLR_1,0.0,79.00,0.00,0.00,98.00,7.00,2.00,1,1,1,79.00,117.00,0.00,14.00,0.00,4.00,4.00,2128.00,TARP,DOE-2,532.00,208.00,135.20,72.80,6,2,0,Yes
 Zone Information, OFFICES_ZN_1_FLR_2,0.0,79.00,0.00,4.00,98.00,7.00,6.00,1,1,1,79.00,117.00,0.00,14.00,4.00,8.00,4.00,2128.00,TARP,DOE-2,532.00,208.00,135.20,72.80,6,2,0,Yes
! <Zone Internal Gains/Equipment Information - Nominal>,Zone Name, Floor Area {m2},# Occupants,Area per Occupant {m2/person},Occupant per Area {person/m2},Interior Lighting {W/m2},Electric Load {W/m2},Gas Load {W/m2},Other Load {W/m2},Hot Water Eq {W/m2},Steam Equipment {W/m2},Sum Loads per Area {W/m2},Outdoor Controlled Baseboard Heat
 Zone Internal Gains, AUDITORIUM_ZN_1_FLR_1,988.00,988.0,1.000,1.000,9.680,5.000,0.000,0.000,0.000,0.000,14.680,No
 Zone Internal Gains, AUX_GYM_ZN_1_FLR_1,1248.00,374.8,3.330,0.300,15.060,5.000,0.000,0.000,0.000,0.000,20.060,No
 Zone Internal Gains, BATHROOMS_ZN_1_FLR_1,210.00,21.0,10.000,0.100,9.680,4.000,0.000,0.000,0.000,0.000,13.680,No
 Zone Internal Gains, BATHROOMS_ZN_1_FLR_2,210.00,21.0,10.000,0.100,9.680,4.000,0.000,0.000,0.000,0.000,13.680,No
 Zone Internal Gains, CAFETERIA_ZN_1_FLR_1,624.00,448.9,1.390,0.719,15.060,19.260,0.000,0.000,0.000,0.000,34.320,No
 Zone Internal Gains, CORNER_CLASS_1_POD_1_ZN_1_FLR_1,99.00,24.8,4.000,0.250,15.060,10.000,0.000,0.000,0.000,0.000,25.060,No
 Zone Internal Gains, CORNER_CLASS_1_POD_1_ZN_1_FLR_2,99.00,24.8,4.000,0.250,15.060,10.000,0.000,0.000,0.000,0.000,25.060,No
 Zone Internal Gains, CORNER_CLASS_1_POD_2_ZN_1_FLR_1,99.00,24.8,4.000,0.250,15.060,10.000,0.000,0.000,0.000,0.000,25.060,No
 Zone Internal Gains, CORNER_CLASS_1_POD_2_ZN_1_FLR_2,99.00,24.8,4.000,0.250,15.060,10.000,0.000,0.000,0.000,0.000,25.060,No
 Zone Internal Gains, CORNER_CLASS_1_POD_3_ZN_1_FLR_1,99.00,24.8,4.000,0.250,15.060,10.000,0.000,0.000,0.000,0.000,25.060,No
 Zone Internal Gains, CORNER_CLASS_1_POD_3_ZN_1_FLR_2,99.00,24.8,4.000,0.250,15.060,10.000,0.000,0.000,0.000,0.000,25.060,No
 Zone Internal Gains, CORNER_CLASS_2_POD_1_ZN_1_FLR_1,99.00,24.8,4.000,0.250,15.060,10.000,0.000,0.000,0.000,0.000,25.060,No
 Zone Internal Gains, CORNER_CLASS_2_POD_1_ZN_1_FLR_2,99.00,24.8,4.000,0.250,15.060,10.000,0.000,0.000,0.000,0.000,25.060,No
 Zone Internal Gains, CORNER_CLASS_2_POD_2_ZN_1_FLR_1,99.00,24.8,4.000,0.250,15.060,10.000,0.000,0.000,0.000,0.000,25.060,No
 Zone Internal Gains, CORNER_CLASS_2_POD_2_ZN_1_FLR_2,99.00,24.8,4.000,0.250,15.060,10.000,0.000,0.000,0.000,0.000,25.060,No
 Zone Internal Gains, CORNER_CLASS_2_POD_3_ZN_1_FLR_1,99.00,24.8,4.000,0.250,15.060,10.000,0.000,0.000,0.000,0.000,25.060,No
 Zone Internal Gains, CORNER_CLASS_2_POD_3_ZN_1_FLR_2,99.00,24.8,4.000,0.250,15.060,10.000,0.000,0.000,0.000,0.000,25.060,No
 Zone Internal Gains, CORRIDOR_POD_1_ZN_1_FLR_1,320.00,32.0,10.000,0.100,15.060,4.000,0.000,0.000,0.000,0.000,19.060,No
 Zone Internal Gains, CORRIDOR_POD_1_ZN_1_FLR_2,320.00,32.0,10.000,0.100,5.380,4.000,0.000,0.000,0.000,0.000,9.380,No
 Zone Internal Gains, CORRIDOR_POD_2_ZN_1_FLR_1,320.00,32.0,10.000,0.100,5.380,4.000,0.000,0.000,0.000,0.000,9.380,No
 Zone Internal Gains, CORRIDOR_POD_2_ZN_1_FLR_2,320.00,32.0,10.000,0.100,5.380,4.000,0.000,0.000,0.000,0.000,9.380,No
 Zone Internal Gains, CORRIDOR_POD_3_ZN_1_FLR_1,320.00,32.0,10.000,0.100,5.380,4.000,0.000,0.000,0.000,0.000,9.380,No
 Zone Internal Gains, CORRIDOR_POD_3_ZN_1_FLR_2,320.00,32.0,10.000,0.100,5.380,4.000,0.000,0.000,0.000,0.000,9.380,No
 Zone Internal Gains, GYM_ZN_1_FLR_1,1976.00,1976.0,1.000,1.000,15.060,5.000,0.000,0.000,0.000,0.000,20.060,No
 Zone Internal Gains, KITCHEN_ZN_1_FLR_1,216.00,32.4,6.667,0.150,12.910,225.431,1119.042,0.000,0.000,0.000,1357.382,No
 Zone Internal Gains, LIBRARY_MEDIA_CENTER_ZN_1_FLR_2,840.00,193.1,4.350,0.230,13.990,10.000,0.000,0.000,0.000,0.000,23.990,No
 Zone Internal Gains, LOBBY_ZN_1_FLR_1,210.00,0.0,N/A,0.000,13.990,4.000,0.000,0.000,0.000,0.000,17.990,No
 Zone Internal Gains, LOBBY_ZN_1_FLR_2,210.00,0.0,N/A,0.000,13.990,4.000,0.000,0.000,0.000,0.000,17.990,No
 Zone Internal Gains, MAIN_CORRIDOR_ZN_1_FLR_1,1140.00,0.0,N/A,0.000,5.380,4.000,0.000,0.000,0.000,0.000,9.380,No
 Zone Internal Gains, MAIN_CORRIDOR_ZN_1_FLR_2,1140.00,0.0,N/A,0.000,5.380,4.000,0.000,0.000,0.000,0.000,9.380,No
 Zone Internal Gains, MECH_ZN_1_FLR_1,342.00,3.4,100.000,1.000E-002,16.140,97.889,0.000,0.000,0.000,0.000,114.029,No
 Zone Internal Gains, MECH_ZN_1_FLR_2,342.00,3.4,100.000,1.000E-002,16.140,4.000,0.000,0.000,0.000,0.000,20.140,No
 Zone Internal Gains, MULT_CLASS_1_POD_1_ZN_1_FLR_1,477.00,119.3,4.000,0.250,15.060,10.000,0.000,0.000,0.000,0.000,25.060,No
 Zone Internal Gains, MULT_CLASS_1_POD_1_ZN_1_FLR_2,477.00,119.3,4.000,0.250,15.060,10.000,0.000,0.000,0.000,0.000,25.060,No
 Zone Internal Gains, MULT_CLASS_1_POD_2_ZN_1_FLR_1,477.00,119.3,4.000,0.250,15.060,10.000,0.000,0.000,0.000,0.000,25.060,No
 Zone Internal Gains, MULT_CLASS_1_POD_2_ZN_1_FLR_2,477.00,119.3,4.000,0.250,15.060,10.000,0.000,0.000,0.000,0.000,25.060,No
 Zone Internal Gains, MULT_CLASS_1_POD_3_ZN_1_FLR_1,477.00,119.3,4.000,0.250,15.060,10.000,0.000,0.000,0.000,0.000,25.060,No
 Zone Internal Gains, MULT_CLASS_1_POD_3_ZN_1_FLR_2,477.00,119.3,4.000,0.250,15.060,10.000,0.000,0.000,0.000,0.000,25.060,No
 Zone Internal Gains, MULT_CLASS_2_POD_1_ZN_1_FLR_1,477.00,119.3,4.000,0.250,15.060,10.000,0.000,0.000,0.000,0.000,25.060,No
 Zone Internal Gains, MULT_CLASS_2_POD_1_ZN_1_FLR_2,477.00,119.3,4.000,0.250,15.060,10.000,0.000,0.000,0.000,0.000,25.060,No
 Zone Internal Gains, MULT_CLASS_2_POD_2_ZN_1_FLR_1,477.00,119.3,4.000,0.250,15.060,10.000,0.000,0.000,0.000,0.000,25.060,No
 Zone Internal Gains, MULT_CLASS_2_POD_2_ZN_1_FLR_2,477.00,119.3,4.000,0.250,15.060,10.000,0.000,0.000,0.000,0.000,25.060,No
 Zone Internal Gains, MULT_CLASS_2_POD_3_ZN_1_FLR_1,477.00,119.3,4.000,0.250,15.060,10.000,0.000,0.000,0.000,0.000,25.060,No
 Zone Internal Gains, MULT_CLASS_2_POD_3_ZN_1_FLR_2,477.00,119.3,4.000,0.250,15.060,10.000,0.000,0.000,0.000,0.000,25.060,No
 Zone Internal Gains, OFFICES_ZN_1_FLR_1,532.00,26.6,20.000,5.000E-002,11.840,10.800,0.000,0.000,0.000,0.000,22.640,No
 Zone Internal Gains, OFFICES_ZN_1_FLR_2,532.00,26.6,20.000,5.000E-002,11.840,10.800,0.000,0.000,0.000,0.000,22.640,No
! <People Internal Gains - Nominal>,Name,Schedule Name,Zone Name,Zone Floor Area {m2},# Zone Occupants,Number of People {},People/Floor Area {person/m2},Floor Area per person {m2/person},Fraction Radiant,Fraction Convected,Sensible Fraction Calculation,Activity level,ASHRAE 55 Warnings,Carbon Dioxide Generation Rate,Nominal Minimum Number of People,Nominal Maximum Number of People,MRT Calculation Type,Work Efficiency,Clothing,Air Velocity,Fanger Calculation,Pierce Calculation,KSU Calculation
 People Internal Gains, AUDITORIUM_ZN_1_FLR_1 PEOPLE,OCC_SCH,AUDITORIUM_ZN_1_FLR_1,988.00,988.0,988.0,1.000,1.000,0.300,0.700,AutoCalculate,ACTIVITY_SCH,No,3.8200E-008,741,741,Zone Averaged,WORK_EFF_SCH,CLOTHING_SCH,AIR_VELO_SCH,Yes,No,No
 People Internal Gains, AUX_GYM_ZN_1_FLR_1 PEOPLE,BLDG_OCC_SCH_GYM,AUX_GYM_ZN_1_FLR_1,1248.00,374.8,374.8,0.300,3.330,0.300,0.700,AutoCalculate,ACTIVITY_SCH,No,3.8200E-008,0,356,Zone Averaged,WORK_EFF_SCH,CLOTHING_SCH,AIR_VELO_SCH,Yes,No,No
 People Internal Gains, BATHROOMS_ZN_1_FLR_1 PEOPLE,BLDG_OCC_SCH,BATHROOMS_ZN_1_FLR_1,210.00,21.0,21.0,0.100,10.000,0.300,0.700,AutoCalculate,ACTIVITY_SCH,No,3.8200E-008,0,15,Zone Averaged,WORK_EFF_SCH,CLOTHING_SCH,AIR_VELO_SCH,Yes,No,No
 People Internal Gains, BATHROOMS_ZN_1_FLR_2 PEOPLE,BLDG_OCC_SCH,BATHROOMS_ZN_1_FLR_2,210.00,21.0,21.0,0.100,10.000,0.300,0.700,AutoCalculate,ACTIVITY_SCH,No,3.8200E-008,0,15,Zone Averaged,WORK_EFF_SCH,CLOTHING_SCH,AIR_VELO_SCH,Yes,No,No
 People Internal Gains, CAFETERIA_ZN_1_FLR_1 PEOPLE,BLDG_OCC_SCH_CAFETERIA,CAFETERIA_ZN_1_FLR_1,624.00,448.9,448.9,0.719,1.390,0.300,0.700,AutoCalculate,ACTIVITY_SCH,No,3.8200E-008,0,426,Zone Averaged,WORK_EFF_SCH,CLOTHING_SCH,AIR_VELO_SCH,Yes,No,No
 People Internal Gains, CORNER_CLASS_1_POD_1_ZN_1_FLR_1 PEOPLE,BLDG_OCC_SCH,CORNER_CLASS_1_POD_1_ZN_1_FLR_1,99.00,24.8,24.8,0.250,4.000,0.300,0.700,AutoCalculate,ACTIVITY_SCH,No,3.8200E-008,0,17,Zone Averaged,WORK_EFF_SCH,CLOTHING_SCH,AIR_VELO_SCH,Yes,No,No
 People Internal Gains, CORNER_CLASS_1_POD_1_ZN_1_FLR_2 PEOPLE,BLDG_OCC_SCH,CORNER_CLASS_1_POD_1_ZN_1_FLR_2,99.00,24.8,24.8,0.250,4.000,0.300,0.700,AutoCalculate,ACTIVITY_SCH,No,3.8200E-008,0,17,Zone Averaged,WORK_EFF_SCH,CLOTHING_SCH,AIR_VELO_SCH,Yes,No,No
 People Internal Gains, CORNER_CLASS_1_POD_2_ZN_1_FLR_1 PEOPLE,BLDG_OCC_SCH,CORNER_CLASS_1_POD_2_ZN_1_FLR_1,99.00,24.8,24.8,0.250,4.000,0.300,0.700,AutoCalculate,ACTIVITY_SCH,No,3.8200E-008,0,17,Zone Averaged,WORK_EFF_SCH,CLOTHING_SCH,AIR_VELO_SCH,Yes,No,No
 People Internal Gains, CORNER_CLASS_1_POD_2_ZN_1_FLR_2 PEOPLE,BLDG_OCC_SCH,CORNER_CLASS_1_POD_2_ZN_1_FLR_2,99.00,24.8,24.8,0.250,4.000,0.300,0.700,AutoCalculate,ACTIVITY_SCH,No,3.8200E-008,0,17,Zone Averaged,WORK_EFF_SCH,CLOTHING_SCH,AIR_VELO_SCH,Yes,No,No
 People Internal Gains, CORNER_CLASS_1_POD_3_ZN_1_FLR_1 PEOPLE,BLDG_OCC_SCH,CORNER_CLASS_1_POD_3_ZN_1_FLR_1,99.00,24.8,24.8,0.250,4.000,0.300,0.700,AutoCalculate,ACTIVITY_SCH,No,3.8200E-008,0,17,Zone Averaged,WORK_EFF_SCH,CLOTHING_SCH,AIR_VELO_SCH,Yes,No,No
 People Internal Gains, CORNER_CLASS_1_POD_3_ZN_1_FLR_2 PEOPLE,BLDG_OCC_SCH,CORNER_CLASS_1_POD_3_ZN_1_FLR_2,99.00,24.8,24.8,0.250,4.000,0.300,0.700,AutoCalculate,ACTIVITY_SCH,No,3.8200E-008,0,17,Zone Averaged,WORK_EFF_SCH,CLOTHING_SCH,AIR_VELO_SCH,Yes,No,No
 People Internal Gains, CORNER_CLASS_2_POD_1_ZN_1_FLR_1 PEOPLE,BLDG_OCC_SCH,CORNER_CLASS_2_POD_1_ZN_1_FLR_1,99.00,24.8,24.8,0.250,4.000,0.300,0.700,AutoCalculate,ACTIVITY_SCH,No,3.8200E-008,0,17,Zone Averaged,WORK_EFF_SCH,CLOTHING_SCH,AIR_VELO_SCH,Yes,No,No
 People Internal Gains, CORNER_CLASS_2_POD_1_ZN_1_FLR_2 PEOPLE,BLDG_OCC_SCH,CORNER_CLASS_2_POD_1_ZN_1_FLR_2,99.00,24.8,24.8,0.250,4.000,0.300,0.700,AutoCalculate,ACTIVITY_SCH,No,3.8200E-008,0,17,Zone Averaged,WORK_EFF_SCH,CLOTHING_SCH,AIR_VELO_SCH,Yes,No,No
 People Internal Gains, CORNER_CLASS_2_POD_2_ZN_1_FLR_1 PEOPLE,BLDG_OCC_SCH,CORNER_CLASS_2_POD_2_ZN_1_FLR_1,99.00,24.8,24.8,0.250,4.000,0.300,0.700,AutoCalculate,ACTIVITY_SCH,No,3.8200E-008,0,17,Zone Averaged,WORK_EFF_SCH,CLOTHING_SCH,AIR_VELO_SCH,Yes,No,No
 People Internal Gains, CORNER_CLASS_2_POD_2_ZN_1_FLR_2 PEOPLE,BLDG_OCC_SCH,CORNER_CLASS_2_POD_2_ZN_1_FLR_2,99.00,24.8,24.8,0.250,4.000,0.300,0.700,AutoCalculate,ACTIVITY_SCH,No,3.8200E-008,0,17,Zone Averaged,WORK_EFF_SCH,CLOTHING_SCH,AIR_VELO_SCH,Yes,No,No
 People Internal Gains, CORNER_CLASS_2_POD_3_ZN_1_FLR_1 PEOPLE,BLDG_OCC_SCH,CORNER_CLASS_2_POD_3_ZN_1_FLR_1,99.00,24.8,24.8,0.250,4.000,0.300,0.700,AutoCalculate,ACTIVITY_SCH,No,3.8200E-008,0,17,Zone Averaged,WORK_EFF_SCH,CLOTHING_SCH,AIR_VELO_SCH,Yes,No,No
 People Internal Gains, CORNER_CLASS_2_POD_3_ZN_1_FLR_2 PEOPLE,BLDG_OCC_SCH,CORNER_CLASS_2_POD_3_ZN_1_FLR_2,99.00,24.8,24.8,0.250,4.000,0.300,0.700,AutoCalculate,ACTIVITY_SCH,No,3.8200E-008,0,17,Zone Averaged,WORK_EFF_SCH,CLOTHING_SCH,AIR_VELO_SCH,Yes,No,No
 People Internal Gains, CORRIDOR_POD_1_ZN_1_FLR_1 PEOPLE,BLDG_OCC_SCH,CORRIDOR_POD_1_ZN_1_FLR_1,320.00,32.0,32.0,0.100,10.000,0.300,0.700,AutoCalculate,ACTIVITY_SCH,No,3.8200E-008,0,22,Zone Averaged,WORK_EFF_SCH,CLOTHING_SCH,AIR_VELO_SCH,Yes,No,No
 People Internal Gains, CORRIDOR_POD_1_ZN_1_FLR_2 PEOPLE,BLDG_OCC_SCH,CORRIDOR_POD_1_ZN_1_FLR_2,320.00,32.0,32.0,0.100,10.000,0.300,0.700,AutoCalculate,ACTIVITY_SCH,No,3.8200E-008,0,22,Zone Averaged,WORK_EFF_SCH,CLOTHING_SCH,AIR_VELO_SCH,Yes,No,No
 People Internal Gains, CORRIDOR_POD_2_ZN_1_FLR_1 PEOPLE,BLDG_OCC_SCH,CORRIDOR_POD_2_ZN_1_FLR_1,320.00,32.0,32.0,0.100,10.000,0.300,0.700,AutoCalculate,ACTIVITY_SCH,No,3.8200E-008,0,22,Zone Averaged,WORK_EFF_SCH,CLOTHING_SCH,AIR_VELO_SCH,Yes,No,No
 People Internal Gains, CORRIDOR_POD_2_ZN_1_FLR_2 PEOPLE,BLDG_OCC_SCH,CORRIDOR_POD_2_ZN_1_FLR_2,320.00,32.0,32.0,0.100,10.000,0.300,0.700,AutoCalculate,ACTIVITY_SCH,No,3.8200E-008,0,22,Zone Averaged,WORK_EFF_SCH,CLOTHING_SCH,AIR_VELO_SCH,Yes,No,No
 People Internal Gains, CORRIDOR_POD_3_ZN_1_FLR_1 PEOPLE,BLDG_OCC_SCH,CORRIDOR_POD_3_ZN_1_FLR_1,320.00,32.0,32.0,0.100,10.000,0.300,0.700,AutoCalculate,ACTIVITY_SCH,No,3.8200E-008,0,22,Zone Averaged,WORK_EFF_SCH,CLOTHING_SCH,AIR_VELO_SCH,Yes,No,No
 People Internal Gains, CORRIDOR_POD_3_ZN_1_FLR_2 PEOPLE,BLDG_OCC_SCH,CORRIDOR_POD_3_ZN_1_FLR_2,320.00,32.0,32.0,0.100,10.000,0.300,0.700,AutoCalculate,ACTIVITY_SCH,No,3.8200E-008,0,22,Zone Averaged,WORK_EFF_SCH,CLOTHING_SCH,AIR_VELO_SCH,Yes,No,No
 People Internal Gains, GYM_ZN_1_FLR_1 PEOPLE,BLDG_OCC_SCH_GYM,GYM_ZN_1_FLR_1,1976.00,1976.0,1976.0,1.000,1.000,0.300,0.700,AutoCalculate,ACTIVITY_SCH,No,3.8200E-008,0,1877,Zone Averaged,WORK_EFF_SCH,CLOTHING_SCH,AIR_VELO_SCH,Yes,No,No
 People Internal Gains, KITCHEN_ZN_1_FLR_1 PEOPLE,BLDG_OCC_SCH,KITCHEN_ZN_1_FLR_1,216.00,32.4,32.4,0.150,6.667,0.300,0.700,AutoCalculate,ACTIVITY_SCH,No,3.8200E-008,0,23,Zone Averaged,WORK_EFF_SCH,CLOTHING_SCH,AIR_VELO_SCH,Yes,No,No
 People Internal Gains, LIBRARY_MEDIA_CENTER_ZN_1_FLR_2 PEOPLE,BLDG_OCC_SCH,LIBRARY_MEDIA_CENTER_ZN_1_FLR_2,840.00,193.1,193.1,0.230,4.350,0.300,0.700,AutoCalculate,ACTIVITY_SCH,No,3.8200E-008,0,135,Zone Averaged,WORK_EFF_SCH,CLOTHING_SCH,AIR_VELO_SCH,Yes,No,No
 People Internal Gains, MECH_ZN_1_FLR_1 PEOPLE,BLDG_OCC_SCH,MECH_ZN_1_FLR_1,342.00,3.4,3.4,1.000E-002,100.000,0.300,0.700,AutoCalculate,ACTIVITY_SCH,No,3.8200E-008,0,2,Zone Averaged,WORK_EFF_SCH,CLOTHING_SCH,AIR_VELO_SCH,Yes,No,No
 People Internal Gains, MECH_ZN_1_FLR_2 PEOPLE,BLDG_OCC_SCH,MECH_ZN_1_FLR_2,342.00,3.4,3.4,1.000E-002,100.000,0.300,0.700,AutoCalculate,ACTIVITY_SCH,No,3.8200E-008,0,2,Zone Averaged,WORK_EFF_SCH,CLOTHING_SCH,AIR_VELO_SCH,Yes,No,No
 People Internal Gains, MULT_CLASS_1_POD_1_ZN_1_FLR_1 PEOPLE,BLDG_OCC_SCH,MULT_CLASS_1_POD_1_ZN_1_FLR_1,477.00,119.3,119.3,0.250,4.000,0.300,0.700,AutoCalculate,ACTIVITY_SCH,No,3.8200E-008,0,83,Zone Averaged,WORK_EFF_SCH,CLOTHING_SCH,AIR_VELO_SCH,Yes,No,No
 People Internal Gains, MULT_CLASS_1_POD_1_ZN_1_FLR_2 PEOPLE,BLDG_OCC_SCH,MULT_CLASS_1_POD_1_ZN_1_FLR_2,477.00,119.3,119.3,0.250,4.000,0.300,0.700,AutoCalculate,ACTIVITY_SCH,No,3.8200E-008,0,83,Zone Averaged,WORK_EFF_SCH,CLOTHING_SCH,AIR_VELO_SCH,Yes,No,No
 People Internal Gains, MULT_CLASS_1_POD_2_ZN_1_FLR_1 PEOPLE,BLDG_OCC_SCH,MULT_CLASS_1_POD_2_ZN_1_FLR_1,477.00,119.3,119.3,0.250,4.000,0.300,0.700,AutoCalculate,ACTIVITY_SCH,No,3.8200E-008,0,83,Zone Averaged,WORK_EFF_SCH,CLOTHING_SCH,AIR_VELO_SCH,Yes,No,No
 People Internal Gains, MULT_CLASS_1_POD_2_ZN_1_FLR_2 PEOPLE,BLDG_OCC_SCH,MULT_CLASS_1_POD_2_ZN_1_FLR_2,477.00,119.3,119.3,0.250,4.000,0.300,0.700,AutoCalculate,ACTIVITY_SCH,No,3.8200E-008,0,83,Zone Averaged,WORK_EFF_SCH,CLOTHING_SCH,AIR_VELO_SCH,Yes,No,No
 People Internal Gains, MULT_CLASS_1_POD_3_ZN_1_FLR_1 PEOPLE,BLDG_OCC_SCH,MULT_CLASS_1_POD_3_ZN_1_FLR_1,477.00,119.3,119.3,0.250,4.000,0.300,0.700,AutoCalculate,ACTIVITY_SCH,No,3.8200E-008,0,83,Zone Averaged,WORK_EFF_SCH,CLOTHING_SCH,AIR_VELO_SCH,Yes,No,No
 People Internal Gains, MULT_CLASS_1_POD_3_ZN_1_FLR_2 PEOPLE,BLDG_OCC_SCH_EXTEND,MULT_CLASS_1_POD_3_ZN_1_FLR_2,477.00,119.3,119.3,0.250,4.000,0.300,0.700,AutoCalculate,ACTIVITY_SCH,No,3.8200E-008,0,83,Zone Averaged,WORK_EFF_SCH,CLOTHING_SCH,AIR_VELO_SCH,Yes,No,No
 People Internal Gains, MULT_CLASS_2_POD_1_ZN_1_FLR_1 PEOPLE,BLDG_OCC_SCH,MULT_CLASS_2_POD_1_ZN_1_FLR_1,477.00,119.3,119.3,0.250,4.000,0.300,0.700,AutoCalculate,ACTIVITY_SCH,No,3.8200E-008,0,83,Zone Averaged,WORK_EFF_SCH,CLOTHING_SCH,AIR_VELO_SCH,Yes,No,No
 People Internal Gains, MULT_CLASS_2_POD_1_ZN_1_FLR_2 PEOPLE,BLDG_OCC_SCH,MULT_CLASS_2_POD_1_ZN_1_FLR_2,477.00,119.3,119.3,0.250,4.000,0.300,0.700,AutoCalculate,ACTIVITY_SCH,No,3.8200E-008,0,83,Zone Averaged,WORK_EFF_SCH,CLOTHING_SCH,AIR_VELO_SCH,Yes,No,No
 People Internal Gains, MULT_CLASS_2_POD_2_ZN_1_FLR_1 PEOPLE,BLDG_OCC_SCH,MULT_CLASS_2_POD_2_ZN_1_FLR_1,477.00,119.3,119.3,0.250,4.000,0.300,0.700,AutoCalculate,ACTIVITY_SCH,No,3.8200E-008,0,83,Zone Averaged,WORK_EFF_SCH,CLOTHING_SCH,AIR_VELO_SCH,Yes,No,No
 People Internal Gains, MULT_CLASS_2_POD_2_ZN_1_FLR_2 PEOPLE,BLDG_OCC_SCH,MULT_CLASS_2_POD_2_ZN_1_FLR_2,477.00,119.3,119.3,0.250,4.000,0.300,0.700,AutoCalculate,ACTIVITY_SCH,No,3.8200E-008,0,83,Zone Averaged,WORK_EFF_SCH,CLOTHING_SCH,AIR_VELO_SCH,Yes,No,No
 People Internal Gains, MULT_CLASS_2_POD_3_ZN_1_FLR_1 PEOPLE,BLDG_OCC_SCH,MULT_CLASS_2_POD_3_ZN_1_FLR_1,477.00,119.3,119.3,0.250,4.000,0.300,0.700,AutoCalculate,ACTIVITY_SCH,No,3.8200E-008,0,83,Zone Averaged,WORK_EFF_SCH,CLOTHING_SCH,AIR_VELO_SCH,Yes,No,No
 People Internal Gains, MULT_CLASS_2_POD_3_ZN_1_FLR_2 PEOPLE,BLDG_OCC_SCH_EXTEND,MULT_CLASS_2_POD_3_ZN_1_FLR_2,477.00,119.3,119.3,0.250,4.000,0.300,0.700,AutoCalculate,ACTIVITY_SCH,No,3.8200E-008,0,83,Zone Averaged,WORK_EFF_SCH,CLOTHING_SCH,AIR_VELO_SCH,Yes,No,No
 People Internal Gains, OFFICES_ZN_1_FLR_1 PEOPLE,BLDG_OCC_SCH_OFFICES,OFFICES_ZN_1_FLR_1,532.00,26.6,26.6,5.000E-002,20.000,0.300,0.700,AutoCalculate,ACTIVITY_SCH,No,3.8200E-008,0,25,Zone Averaged,WORK_EFF_SCH,CLOTHING_SCH,AIR_VELO_SCH,Yes,No,No
 People Internal Gains, OFFICES_ZN_1_FLR_2 PEOPLE,BLDG_OCC_SCH_OFFICES,OFFICES_ZN_1_FLR_2,532.00,26.6,26.6,5.000E-002,20.000,0.300,0.700,AutoCalculate,ACTIVITY_SCH,No,3.8200E-008,0,25,Zone Averaged,WORK_EFF_SCH,CLOTHING_SCH,AIR_VELO_SCH,Yes,No,No
! <Lights Internal Gains - Nominal>,Name,Schedule Name,Zone Name,Zone Floor Area {m2},# Zone Occupants,Lighting Level {W},Lights/Floor Area {W/m2},Lights per person {W/person},Fraction Return Air,Fraction Radiant,Fraction Short Wave,Fraction Convected,Fraction Replaceable,End-Use Category,Nominal Minimum Lighting Level {W},Nominal Maximum Lighting Level {W}
 Lights Internal Gains, AUDITORIUM_ZN_1_FLR_1_LIGHTS,BLDG_LIGHT_SCH,AUDITORIUM_ZN_1_FLR_1,988.00,988.0,9563.840,9.680,9.680,0.000,0.370,0.200,0.430,1.000,General,1695.669,8607.456
 Lights Internal Gains, AUX_GYM_ZN_1_FLR_1_LIGHTS,BLDG_LIGHT_SCH,AUX_GYM_ZN_1_FLR_1,1248.00,374.8,18794.880,15.060,50.150,0.000,0.370,0.200,0.430,1.000,General,3332.332,16915.392
 Lights Internal Gains, BATHROOMS_ZN_1_FLR_1_LIGHTS,BLDG_LIGHT_SCH,BATHROOMS_ZN_1_FLR_1,210.00,21.0,2032.800,9.680,96.800,0.000,0.370,0.200,0.430,1.000,General,360.415,1829.520
 Lights Internal Gains, BATHROOMS_ZN_1_FLR_2_LIGHTS,BLDG_LIGHT_SCH,BATHROOMS_ZN_1_FLR_2,210.00,21.0,2032.800,9.680,96.800,0.000,0.370,0.200,0.430,1.000,General,360.415,1829.520
 Lights Internal Gains, CAFETERIA_ZN_1_FLR_1_LIGHTS,BLDG_LIGHT_SCH,CAFETERIA_ZN_1_FLR_1,624.00,448.9,9397.440,15.060,20.933,0.000,0.370,0.200,0.430,1.000,General,1666.166,8457.696
 Lights Internal Gains, CORNER_CLASS_1_POD_1_ZN_1_FLR_1_LIGHTS,BLDG_LIGHT_SCH,CORNER_CLASS_1_POD_1_ZN_1_FLR_1,99.00,24.8,1490.940,15.060,60.240,0.000,0.370,0.200,0.430,1.000,General,264.344,1341.846
 Lights Internal Gains, CORNER_CLASS_1_POD_1_ZN_1_FLR_2_LIGHTS,BLDG_LIGHT_SCH,CORNER_CLASS_1_POD_1_ZN_1_FLR_2,99.00,24.8,1490.940,15.060,60.240,0.000,0.370,0.200,0.430,1.000,General,264.344,1341.846
 Lights Internal Gains, CORNER_CLASS_1_POD_2_ZN_1_FLR_1_LIGHTS,BLDG_LIGHT_SCH,CORNER_CLASS_1_POD_2_ZN_1_FLR_1,99.00,24.8,1490.940,15.060,60.240,0.000,0.370,0.200,0.430,1.000,General,264.344,1341.846
 Lights Internal Gains, CORNER_CLASS_1_POD_2_ZN_1_FLR_2_LIGHTS,BLDG_LIGHT_SCH,CORNER_CLASS_1_POD_2_ZN_1_FLR_2,99.00,24.8,1490.940,15.060,60.240,0.000,0.370,0.200,0.430,1.000,General,264.344,1341.846
 Lights Internal Gains, CORNER_CLASS_1_POD_3_ZN_1_FLR_1_LIGHTS,BLDG_LIGHT_SCH,CORNER_CLASS_1_POD_3_ZN_1_FLR_1,99.00,24.8,1490.940,15.060,60.240,0.000,0.370,0.200,0.430,1.000,General,264.344,1341.846
 Lights Internal Gains, CORNER_CLASS_1_POD_3_ZN_1_FLR_2_LIGHTS,BLDG_LIGHT_SCH,CORNER_CLASS_1_POD_3_ZN_1_FLR_2,99.00,24.8,1490.940,15.060,60.240,0.000,0.370,0.200,0.430,1.000,General,264.344,1341.846
 Lights Internal Gains, CORNER_CLASS_2_POD_1_ZN_1_FLR_1_LIGHTS,BLDG_LIGHT_SCH,CORNER_CLASS_2_POD_1_ZN_1_FLR_1,99.00,24.8,1490.940,15.060,60.240,0.000,0.370,0.200,0.430,1.000,General,264.344,1341.846
 Lights Internal Gains, CORNER_CLASS_2_POD_1_ZN_1_FLR_2_LIGHTS,BLDG_LIGHT_SCH,CORNER_CLASS_2_POD_1_ZN_1_FLR_2,99.00,24.8,1490.940,15.060,60.240,0.000,0.370,0.200,0.430,1.000,General,264.344,1341.846
 Lights Internal Gains, CORNER_CLASS_2_POD_2_ZN_1_FLR_1_LIGHTS,BLDG_LIGHT_SCH,CORNER_CLASS_2_POD_2_ZN_1_FLR_1,99.00,24.8,1490.940,15.060,60.240,0.000,0.370,0.200,0.430,1.000,General,264.344,1341.846
 Lights Internal Gains, CORNER_CLASS_2_POD_2_ZN_1_FLR_2_LIGHTS,BLDG_LIGHT_SCH,CORNER_CLASS_2_POD_2_ZN_1_FLR_2,99.00,24.8,1490.940,15.060,60.240,0.000,0.370,0.200,0.430,1.000,General,264.344,1341.846
 Lights Internal Gains, CORNER_CLASS_2_POD_3_ZN_1_FLR_1_LIGHTS,BLDG_LIGHT_SCH,CORNER_CLASS_2_POD_3_ZN_1_FLR_1,99.00,24.8,1490.940,15.060,60.240,0.000,0.370,0.200,0.430,1.000,General,264.344,1341.846
 Lights Internal Gains, CORNER_CLASS_2_POD_3_ZN_1_FLR_2_LIGHTS,BLDG_LIGHT_SCH,CORNER_CLASS_2_POD_3_ZN_1_FLR_2,99.00,24.8,1490.940,15.060,60.240,0.000,0.370,0.200,0.430,1.000,General,264.344,1341.846
 Lights Internal Gains, CORRIDOR_POD_1_ZN_1_FLR_1_LIGHTS,BLDG_LIGHT_SCH,CORRIDOR_POD_1_ZN_1_FLR_1,320.00,32.0,4819.200,15.060,150.600,0.000,0.370,0.200,0.430,1.000,General,854.444,4337.280
 Lights Internal Gains, CORRIDOR_POD_1_ZN_1_FLR_2_LIGHTS,BLDG_LIGHT_SCH,CORRIDOR_POD_1_ZN_1_FLR_2,320.00,32.0,1721.600,5.380,53.800,0.000,0.370,0.200,0.430,1.000,General,305.240,1549.440
 Lights Internal Gains, CORRIDOR_POD_2_ZN_1_FLR_1_LIGHTS,BLDG_LIGHT_SCH,CORRIDOR_POD_2_ZN_1_FLR_1,320.00,32.0,1721.600,5.380,53.800,0.000,0.370,0.200,0.430,1.000,General,305.240,1549.440
 Lights Internal Gains, CORRIDOR_POD_2_ZN_1_FLR_2_LIGHTS,BLDG_LIGHT_SCH,CORRIDOR_POD_2_ZN_1_FLR_2,320.00,32.0,1721.600,5.380,53.800,0.000,0.370,0.200,0.430,1.000,General,305.240,1549.440
 Lights Internal Gains, CORRIDOR_POD_3_ZN_1_FLR_1_LIGHTS,BLDG_LIGHT_SCH,CORRIDOR_POD_3_ZN_1_FLR_1,320.00,32.0,1721.600,5.380,53.800,0.000,0.370,0.200,0.430,1.000,General,305.240,1549.440
 Lights Internal Gains, CORRIDOR_POD_3_ZN_1_FLR_2_LIGHTS,BLDG_LIGHT_SCH,CORRIDOR_POD_3_ZN_1_FLR_2,320.00,32.0,1721.600,5.380,53.800,0.000,0.370,0.200,0.430,1.000,General,305.240,1549.440
 Lights Internal Gains, GYM_ZN_1_FLR_1_LIGHTS,BLDG_LIGHT_SCH,GYM_ZN_1_FLR_1,1976.00,1976.0,29758.560,15.060,15.060,0.000,0.370,0.200,0.430,1.000,General,5276.193,26782.704
 Lights Internal Gains, KITCHEN_ZN_1_FLR_1_LIGHTS,BLDG_LIGHT_SCH,KITCHEN_ZN_1_FLR_1,216.00,32.4,2788.560,12.910,86.067,0.000,0.370,0.200,0.430,1.000,General,494.412,2509.704
 Lights Internal Gains, LIBRARY_MEDIA_CENTER_ZN_1_FLR_2_LIGHTS,BLDG_LIGHT_SCH,LIBRARY_MEDIA_CENTER_ZN_1_FLR_2,840.00,193.1,11751.600,13.990,60.857,0.000,0.370,0.200,0.430,1.000,General,2083.559,10576.440
 Lights Internal Gains, LOBBY_ZN_1_FLR_1_LIGHTS,BLDG_LIGHT_SCH,LOBBY_ZN_1_FLR_1,210.00,0.0,2937.900,13.990,N/A,0.000,0.370,0.200,0.430,1.000,General,520.890,2644.110
 Lights Internal Gains, LOBBY_ZN_1_FLR_2_LIGHTS,BLDG_LIGHT_SCH,LOBBY_ZN_1_FLR_2,210.00,0.0,2937.900,13.990,N/A,0.000,0.370,0.200,0.430,1.000,General,520.890,2644.110
 Lights Internal Gains, MAIN_CORRIDOR_ZN_1_FLR_1_LIGHTS,BLDG_LIGHT_SCH,MAIN_CORRIDOR_ZN_1_FLR_1,1140.00,0.0,6133.200,5.380,N/A,0.000,0.370,0.200,0.430,1.000,General,1087.416,5519.880
 Lights Internal Gains, MAIN_CORRIDOR_ZN_1_FLR_2_LIGHTS,BLDG_LIGHT_SCH,MAIN_CORRIDOR_ZN_1_FLR_2,1140.00,0.0,6133.200,5.380,N/A,0.000,0.370,0.200,0.430,1.000,General,1087.416,5519.880
 Lights Internal Gains, MECH_ZN_1_FLR_1_LIGHTS,BLDG_LIGHT_SCH,MECH_ZN_1_FLR_1,342.00,3.4,5519.880,16.140,1614.000,0.000,0.370,0.200,0.430,1.000,General,978.675,4967.892
 Lights Internal Gains, MECH_ZN_1_FLR_2_LIGHTS,BLDG_LIGHT_SCH,MECH_ZN_1_FLR_2,342.00,3.4,5519.880,16.140,1614.000,0.000,0.370,0.200,0.430,1.000,General,978.675,4967.892
 Lights Internal Gains, MULT_CLASS_1_POD_1_ZN_1_FLR_1_LIGHTS,BLDG_LIGHT_SCH,MULT_CLASS_1_POD_1_ZN_1_FLR_1,477.00,119.3,7183.620,15.060,60.240,0.000,0.370,0.200,0.430,1.000,General,1273.656,6465.258
 Lights Internal Gains, MULT_CLASS_1_POD_1_ZN_1_FLR_2_LIGHTS,BLDG_LIGHT_SCH,MULT_CLASS_1_POD_1_ZN_1_FLR_2,477.00,119.3,7183.620,15.060,60.240,0.000,0.370,0.200,0.430,1.000,General,1273.656,6465.258
 Lights Internal Gains, MULT_CLASS_1_POD_2_ZN_1_FLR_1_LIGHTS,BLDG_LIGHT_SCH,MULT_CLASS_1_POD_2_ZN_1_FLR_1,477.00,119.3,7183.620,15.060,60.240,0.000,0.370,0.200,0.430,1.000,General,1273.656,6465.258
 Lights Internal Gains, MULT_CLASS_1_POD_2_ZN_1_FLR_2_LIGHTS,BLDG_LIGHT_SCH,MULT_CLASS_1_POD_2_ZN_1_FLR_2,477.00,119.3,7183.620,15.060,60.240,0.000,0.370,0.200,0.430,1.000,General,1273.656,6465.258
 Lights Internal Gains, MULT_CLASS_1_POD_3_ZN_1_FLR_1_LIGHTS,BLDG_LIGHT_SCH,MULT_CLASS_1_POD_3_ZN_1_FLR_1,477.00,119.3,7183.620,15.060,60.240,0.000,0.370,0.200,0.430,1.000,General,1273.656,6465.258
 Lights Internal Gains, MULT_CLASS_1_POD_3_ZN_1_FLR_2_LIGHTS,BLDG_LIGHT_SCH,MULT_CLASS_1_POD_3_ZN_1_FLR_2,477.00,119.3,7183.620,15.060,60.240,0.000,0.370,0.200,0.430,1.000,General,1273.656,6465.258
 Lights Internal Gains, MULT_CLASS_2_POD_1_ZN_1_FLR_1_LIGHTS,BLDG_LIGHT_SCH,MULT_CLASS_2_POD_1_ZN_1_FLR_1,477.00,119.3,7183.620,15.060,60.240,0.000,0.370,0.200,0.430,1.000,General,1273.656,6465.258
 Lights Internal Gains, MULT_CLASS_2_POD_1_ZN_1_FLR_2_LIGHTS,BLDG_LIGHT_SCH,MULT_CLASS_2_POD_1_ZN_1_FLR_2,477.00,119.3,7183.620,15.060,60.240,0.000,0.370,0.200,0.430,1.000,General,1273.656,6465.258
 Lights Internal Gains, MULT_CLASS_2_POD_2_ZN_1_FLR_1_LIGHTS,BLDG_LIGHT_SCH,MULT_CLASS_2_POD_2_ZN_1_FLR_1,477.00,119.3,7183.620,15.060,60.240,0.000,0.370,0.200,0.430,1.000,General,1273.656,6465.258
 Lights Internal Gains, MULT_CLASS_2_POD_2_ZN_1_FLR_2_LIGHTS,BLDG_LIGHT_SCH,MULT_CLASS_2_POD_2_ZN_1_FLR_2,477.00,119.3,7183.620,15.060,60.240,0.000,0.370,0.200,0.430,1.000,General,1273.656,6465.258
 Lights Internal Gains, MULT_CLASS_2_POD_3_ZN_1_FLR_1_LIGHTS,BLDG_LIGHT_SCH,MULT_CLASS_2_POD_3_ZN_1_FLR_1,477.00,119.3,7183.620,15.060,60.240,0.000,0.370,0.200,0.430,1.000,General,1273.656,6465.258
 Lights Internal Gains, MULT_CLASS_2_POD_3_ZN_1_FLR_2_LIGHTS,BLDG_LIGHT_SCH,MULT_CLASS_2_POD_3_ZN_1_FLR_2,477.00,119.3,7183.620,15.060,60.240,0.000,0.370,0.200,0.430,1.000,General,1273.656,6465.258
 Lights Internal Gains, OFFICES_ZN_1_FLR_1_LIGHTS,BLDG_LIGHT_SCH,OFFICES_ZN_1_FLR_1,532.00,26.6,6298.880,11.840,236.800,0.000,0.370,0.200,0.430,1.000,General,1116.791,5668.992
 Lights Internal Gains, OFFICES_ZN_1_FLR_2_LIGHTS,BLDG_LIGHT_SCH,OFFICES_ZN_1_FLR_2,532.00,26.6,6298.880,11.840,236.800,0.000,0.370,0.200,0.430,1.000,General,1116.791,5668.992
! <ElectricEquipment Internal Gains - Nominal>,Name,Schedule Name,Zone Name,Zone Floor Area {m2},# Zone Occupants,Equipment Level {W},Equipment/Floor Area {W/m2},Equipment per person {W/person},Fraction Latent,Fraction Radiant,Fraction Lost,Fraction Convected,End-Use SubCategory,Nominal Minimum Equipment Level {W},Nominal Maximum Equipment Level {W}
 ElectricEquipment Internal Gains, AUDITORIUM_ZN_1_FLR_1_PLUGMISC_EQUIP,BLDG_EQUIP_SCH,AUDITORIUM_ZN_1_FLR_1,988.00,988.0,4940.000,5.000,5.000,0.000,0.500,0.000,0.500,General,1235.000,4693.000
 ElectricEquipment Internal Gains, AUX_GYM_ZN_1_FLR_1_PLUGMISC_EQUIP,BLDG_EQUIP_SCH,AUX_GYM_ZN_1_FLR_1,1248.00,374.8,6240.000,5.000,16.650,0.000,0.500,0.000,0.500,General,1560.000,5928.000
 ElectricEquipment Internal Gains, BATHROOMS_ZN_1_FLR_1_PLUGMISC_EQUIP,BLDG_EQUIP_SCH,BATHROOMS_ZN_1_FLR_1,210.00,21.0,840.000,4.000,40.000,0.000,0.500,0.000,0.500,General,210.000,798.000
 ElectricEquipment Internal Gains, BATHROOMS_ZN_1_FLR_2_PLUGMISC_EQUIP,BLDG_EQUIP_SCH,BATHROOMS_ZN_1_FLR_2,210.00,21.0,840.000,4.000,40.000,0.000,0.500,0.000,0.500,General,210.000,798.000
 ElectricEquipment Internal Gains, CAFETERIA_ZN_1_FLR_1_PLUGMISC_EQUIP,KITCHEN_ELEC_EQUIP_SCH,CAFETERIA_ZN_1_FLR_1,624.00,448.9,12018.240,19.260,26.771,0.000,0.500,0.000,0.500,General,1201.824,3004.560
 ElectricEquipment Internal Gains, CORNER_CLASS_1_POD_1_ZN_1_FLR_1_PLUGMISC_EQUIP,BLDG_EQUIP_SCH,CORNER_CLASS_1_POD_1_ZN_1_FLR_1,99.00,24.8,990.000,10.000,40.000,0.000,0.500,0.000,0.500,General,247.500,940.500
 ElectricEquipment Internal Gains, CORNER_CLASS_1_POD_1_ZN_1_FLR_2_PLUGMISC_EQUIP,BLDG_EQUIP_SCH,CORNER_CLASS_1_POD_1_ZN_1_FLR_2,99.00,24.8,990.000,10.000,40.000,0.000,0.500,0.000,0.500,General,247.500,940.500
 ElectricEquipment Internal Gains, CORNER_CLASS_1_POD_2_ZN_1_FLR_1_PLUGMISC_EQUIP,BLDG_EQUIP_SCH,CORNER_CLASS_1_POD_2_ZN_1_FLR_1,99.00,24.8,990.000,10.000,40.000,0.000,0.500,0.000,0.500,General,247.500,940.500
 ElectricEquipment Internal Gains, CORNER_CLASS_1_POD_2_ZN_1_FLR_2_PLUGMISC_EQUIP,BLDG_EQUIP_SCH,CORNER_CLASS_1_POD_2_ZN_1_FLR_2,99.00,24.8,990.000,10.000,40.000,0.000,0.500,0.000,0.500,General,247.500,940.500
 ElectricEquipment Internal Gains, CORNER_CLASS_1_POD_3_ZN_1_FLR_1_PLUGMISC_EQUIP,BLDG_EQUIP_SCH,CORNER_CLASS_1_POD_3_ZN_1_FLR_1,99.00,24.8,990.000,10.000,40.000,0.000,0.500,0.000,0.500,General,247.500,940.500
 ElectricEquipment Internal Gains, CORNER_CLASS_1_POD_3_ZN_1_FLR_2_PLUGMISC_EQUIP,BLDG_EQUIP_SCH,CORNER_CLASS_1_POD_3_ZN_1_FLR_2,99.00,24.8,990.000,10.000,40.000,0.000,0.500,0.000,0.500,General,247.500,940.500
 ElectricEquipment Internal Gains, CORNER_CLASS_2_POD_1_ZN_1_FLR_1_PLUGMISC_EQUIP,BLDG_EQUIP_SCH,CORNER_CLASS_2_POD_1_ZN_1_FLR_1,99.00,24.8,990.000,10.000,40.000,0.000,0.500,0.000,0.500,General,247.500,940.500
 ElectricEquipment Internal Gains, CORNER_CLASS_2_POD_1_ZN_1_FLR_2_PLUGMISC_EQUIP,BLDG_EQUIP_SCH,CORNER_CLASS_2_POD_1_ZN_1_FLR_2,99.00,24.8,990.000,10.000,40.000,0.000,0.500,0.000,0.500,General,247.500,940.500
 ElectricEquipment Internal Gains, CORNER_CLASS_2_POD_2_ZN_1_FLR_1_PLUGMISC_EQUIP,BLDG_EQUIP_SCH,CORNER_CLASS_2_POD_2_ZN_1_FLR_1,99.00,24.8,990.000,10.000,40.000,0.000,0.500,0.000,0.500,General,247.500,940.500
 ElectricEquipment Internal Gains, CORNER_CLASS_2_POD_2_ZN_1_FLR_2_PLUGMISC_EQUIP,BLDG_EQUIP_SCH,CORNER_CLASS_2_POD_2_ZN_1_FLR_2,99.00,24.8,990.000,10.000,40.000,0.000,0.500,0.000,0.500,General,247.500,940.500
 ElectricEquipment Internal Gains, CORNER_CLASS_2_POD_3_ZN_1_FLR_1_PLUGMISC_EQUIP,BLDG_EQUIP_SCH,CORNER_CLASS_2_POD_3_ZN_1_FLR_1,99.00,24.8,990.000,10.000,40.000,0.000,0.500,0.000,0.500,General,247.500,940.500
 ElectricEquipment Internal Gains, CORNER_CLASS_2_POD_3_ZN_1_FLR_2_PLUGMISC_EQUIP,BLDG_EQUIP_SCH,CORNER_CLASS_2_POD_3_ZN_1_FLR_2,99.00,24.8,990.000,10.000,40.000,0.000,0.500,0.000,0.500,General,247.500,940.500
 ElectricEquipment Internal Gains, CORRIDOR_POD_1_ZN_1_FLR_1_PLUGMISC_EQUIP,BLDG_EQUIP_SCH,CORRIDOR_POD_1_ZN_1_FLR_1,320.00,32.0,1280.000,4.000,40.000,0.000,0.500,0.000,0.500,General,320.000,1216.000
 ElectricEquipment Internal Gains, CORRIDOR_POD_1_ZN_1_FLR_2_PLUGMISC_EQUIP,BLDG_EQUIP_SCH,CORRIDOR_POD_1_ZN_1_FLR_2,320.00,32.0,1280.000,4.000,40.000,0.000,0.500,0.000,0.500,General,320.000,1216.000
 ElectricEquipment Internal Gains, CORRIDOR_POD_2_ZN_1_FLR_1_PLUGMISC_EQUIP,BLDG_EQUIP_SCH,CORRIDOR_POD_2_ZN_1_FLR_1,320.00,32.0,1280.000,4.000,40.000,0.000,0.500,0.000,0.500,General,320.000,1216.000
 ElectricEquipment Internal Gains, CORRIDOR_POD_2_ZN_1_FLR_2_PLUGMISC_EQUIP,BLDG_EQUIP_SCH,CORRIDOR_POD_2_ZN_1_FLR_2,320.00,32.0,1280.000,4.000,40.000,0.000,0.500,0.000,0.500,General,320.000,1216.000
 ElectricEquipment Internal Gains, CORRIDOR_POD_3_ZN_1_FLR_1_PLUGMISC_EQUIP,BLDG_EQUIP_SCH,CORRIDOR_POD_3_ZN_1_FLR_1,320.00,32.0,1280.000,4.000,40.000,0.000,0.500,0.000,0.500,General,320.000,1216.000
 ElectricEquipment Internal Gains, CORRIDOR_POD_3_ZN_1_FLR_2_PLUGMISC_EQUIP,BLDG_EQUIP_SCH,CORRIDOR_POD_3_ZN_1_FLR_2,320.00,32.0,1280.000,4.000,40.000,0.000,0.500,0.000,0.500,General,320.000,1216.000
 ElectricEquipment Internal Gains, GYM_ZN_1_FLR_1_PLUGMISC_EQUIP,BLDG_EQUIP_SCH,GYM_ZN_1_FLR_1,1976.00,1976.0,9880.000,5.000,5.000,0.000,0.500,0.000,0.500,General,2470.000,9386.000
 ElectricEquipment Internal Gains, KITCHEN_ZN_1_FLR_1_EXHFAN_EQUIP,KITCHEN_EXHAUST_SCH,KITCHEN_ZN_1_FLR_1,216.00,32.4,699.000,3.236,21.574,0.000,0.000,1.000,0.000,KitchenExhFan,0.000,699.000
 ElectricEquipment Internal Gains, KITCHEN_ZN_1_FLR_1_MISCELEC_EQUIP,KITCHEN_ELEC_EQUIP_SCH,KITCHEN_ZN_1_FLR_1,216.00,32.4,47994.000,222.194,1481.296,0.250,0.300,0.200,0.250,MiscElec,4799.400,11998.500
 ElectricEquipment Internal Gains, LIBRARY_MEDIA_CENTER_ZN_1_FLR_2_PLUGMISC_EQUIP,BLDG_EQUIP_SCH,LIBRARY_MEDIA_CENTER_ZN_1_FLR_2,840.00,193.1,8400.000,10.000,43.500,0.000,0.500,0.000,0.500,General,2100.000,7980.000
 ElectricEquipment Internal Gains, LOBBY_ZN_1_FLR_1_PLUGMISC_EQUIP,BLDG_EQUIP_SCH,LOBBY_ZN_1_FLR_1,210.00,0.0,840.000,4.000,N/A,0.000,0.500,0.000,0.500,General,210.000,798.000
 ElectricEquipment Internal Gains, LOBBY_ZN_1_FLR_2_PLUGMISC_EQUIP,BLDG_EQUIP_SCH,LOBBY_ZN_1_FLR_2,210.00,0.0,840.000,4.000,N/A,0.000,0.500,0.000,0.500,General,210.000,798.000
 ElectricEquipment Internal Gains, MAIN_CORRIDOR_ZN_1_FLR_1_PLUGMISC_EQUIP,BLDG_EQUIP_SCH,MAIN_CORRIDOR_ZN_1_FLR_1,1140.00,0.0,4560.000,4.000,N/A,0.000,0.500,0.000,0.500,General,1140.000,4332.000
 ElectricEquipment Internal Gains, MAIN_CORRIDOR_ZN_1_FLR_2_PLUGMISC_EQUIP,BLDG_EQUIP_SCH,MAIN_CORRIDOR_ZN_1_FLR_2,1140.00,0.0,4560.000,4.000,N/A,0.000,0.500,0.000,0.500,General,1140.000,4332.000
 ElectricEquipment Internal Gains, MECH_ZN_1_FLR_1_ELEVATORS_EQUIP,BLDG_ELEVATORS,MECH_ZN_1_FLR_1,342.00,3.4,32109.890,93.889,9388.857,0.000,0.500,0.000,0.500,Elevators,0.000,9632.967
 ElectricEquipment Internal Gains, MECH_ZN_1_FLR_1_PLUGMISC_EQUIP,BLDG_EQUIP_SCH,MECH_ZN_1_FLR_1,342.00,3.4,1368.000,4.000,400.000,0.000,0.500,0.000,0.500,General,342.000,1299.600
 ElectricEquipment Internal Gains, MECH_ZN_1_FLR_2_PLUGMISC_EQUIP,BLDG_EQUIP_SCH,MECH_ZN_1_FLR_2,342.00,3.4,1368.000,4.000,400.000,0.000,0.500,0.000,0.500,General,342.000,1299.600
 ElectricEquipment Internal Gains, MULT_CLASS_1_POD_1_ZN_1_FLR_1_PLUGMISC_EQUIP,BLDG_EQUIP_SCH,MULT_CLASS_1_POD_1_ZN_1_FLR_1,477.00,119.3,4770.000,10.000,40.000,0.000,0.500,0.000,0.500,General,1192.500,4531.500
 ElectricEquipment Internal Gains, MULT_CLASS_1_POD_1_ZN_1_FLR_2_PLUGMISC_EQUIP,BLDG_EQUIP_SCH,MULT_CLASS_1_POD_1_ZN_1_FLR_2,477.00,119.3,4770.000,10.000,40.000,0.000,0.500,0.000,0.500,General,1192.500,4531.500
 ElectricEquipment Internal Gains, MULT_CLASS_1_POD_2_ZN_1_FLR_1_PLUGMISC_EQUIP,BLDG_EQUIP_SCH,MULT_CLASS_1_POD_2_ZN_1_FLR_1,477.00,119.3,4770.000,10.000,40.000,0.000,0.500,0.000,0.500,General,1192.500,4531.500
 ElectricEquipment Internal Gains, MULT_CLASS_1_POD_2_ZN_1_FLR_2_PLUGMISC_EQUIP,BLDG_EQUIP_SCH,MULT_CLASS_1_POD_2_ZN_1_FLR_2,477.00,119.3,4770.000,10.000,40.000,0.000,0.500,0.000,0.500,General,1192.500,4531.500
 ElectricEquipment Internal Gains, MULT_CLASS_1_POD_3_ZN_1_FLR_1_PLUGMISC_EQUIP,BLDG_EQUIP_SCH,MULT_CLASS_1_POD_3_ZN_1_FLR_1,477.00,119.3,4770.000,10.000,40.000,0.000,0.500,0.000,0.500,General,1192.500,4531.500
 ElectricEquipment Internal Gains, MULT_CLASS_1_POD_3_ZN_1_FLR_2_PLUGMISC_EQUIP,BLDG_EQUIP_SCH,MULT_CLASS_1_POD_3_ZN_1_FLR_2,477.00,119.3,4770.000,10.000,40.000,0.000,0.500,0.000,0.500,General,1192.500,4531.500
 ElectricEquipment Internal Gains, MULT_CLASS_2_POD_1_ZN_1_FLR_1_PLUGMISC_EQUIP,BLDG_EQUIP_SCH,MULT_CLASS_2_POD_1_ZN_1_FLR_1,477.00,119.3,4770.000,10.000,40.000,0.000,0.500,0.000,0.500,General,1192.500,4531.500
 ElectricEquipment Internal Gains, MULT_CLASS_2_POD_1_ZN_1_FLR_2_PLUGMISC_EQUIP,BLDG_EQUIP_SCH,MULT_CLASS_2_POD_1_ZN_1_FLR_2,477.00,119.3,4770.000,10.000,40.000,0.000,0.500,0.000,0.500,General,1192.500,4531.500
 ElectricEquipment Internal Gains, MULT_CLASS_2_POD_2_ZN_1_FLR_1_PLUGMISC_EQUIP,BLDG_EQUIP_SCH,MULT_CLASS_2_POD_2_ZN_1_FLR_1,477.00,119.3,4770.000,10.000,40.000,0.000,0.500,0.000,0.500,General,1192.500,4531.500
 ElectricEquipment Internal Gains, MULT_CLASS_2_POD_2_ZN_1_FLR_2_PLUGMISC_EQUIP,BLDG_EQUIP_SCH,MULT_CLASS_2_POD_2_ZN_1_FLR_2,477.00,119.3,4770.000,10.000,40.000,0.000,0.500,0.000,0.500,General,1192.500,4531.500
 ElectricEquipment Internal Gains, MULT_CLASS_2_POD_3_ZN_1_FLR_1_PLUGMISC_EQUIP,BLDG_EQUIP_SCH,MULT_CLASS_2_POD_3_ZN_1_FLR_1,477.00,119.3,4770.000,10.000,40.000,0.000,0.500,0.000,0.500,General,1192.500,4531.500
 ElectricEquipment Internal Gains, MULT_CLASS_2_POD_3_ZN_1_FLR_2_PLUGMISC_EQUIP,BLDG_EQUIP_SCH,MULT_CLASS_2_POD_3_ZN_1_FLR_2,477.00,119.3,4770.000,10.000,40.000,0.000,0.500,0.000,0.500,General,1192.500,4531.500
 ElectricEquipment Internal Gains, OFFICES_ZN_1_FLR_1_PLUGMISC_EQUIP,BLDG_EQUIP_SCH,OFFICES_ZN_1_FLR_1,532.00,26.6,5745.600,10.800,216.000,0.000,0.500,0.000,0.500,General,1436.400,5458.320
 ElectricEquipment Internal Gains, OFFICES_ZN_1_FLR_2_PLUGMISC_EQUIP,BLDG_EQUIP_SCH,OFFICES_ZN_1_FLR_2,532.00,26.6,5745.600,10.800,216.000,0.000,0.500,0.000,0.500,General,1436.400,5458.320
! <GasEquipment Internal Gains - Nominal>,Name,Schedule Name,Zone Name,Zone Floor Area {m2},# Zone Occupants,Equipment Level {W},Equipment/Floor Area {W/m2},Equipment per person {W/person},Fraction Latent,Fraction Radiant,Fraction Lost,Fraction Convected,End-Use SubCategory,Nominal Minimum Equipment Level {W},Nominal Maximum Equipment Level {W}
 GasEquipment Internal Gains, KITCHEN_ZN_1_FLR_1_MISCGAS_EQUIP,KITCHEN_GAS_EQUIP_SCH,KITCHEN_ZN_1_FLR_1,216.00,32.4,241713.000,1119.042,7460.278,0.100,0.200,0.700,0.000,MiscGas,4834.260,48342.600
! <Construction CTF>,Construction Name,Index,#Layers,#CTFs,Time Step {hours},ThermalConductance {w/m2-K},OuterThermalAbsorptance,InnerThermalAbsorptance,OuterSolarAbsorptance,InnerSolarAbsorptance,Roughness
! <Material CTF Summary>,Material Name,Thickness {m},Conductivity {w/m-K},Density {kg/m3},Specific Heat {J/kg-K},ThermalResistance {m2-K/w}
! <Material:Air>,Material Name,ThermalResistance {m2-K/w}
! <CTF>,Time,Outside,Cross,Inside,Flux (except final one)
 Construction CTF,STEEL FRAME NON-RES EXT WALL,   2,   3,   8,   0.250,     0.5136    ,   0.900,   0.900,   0.780,   0.920,MediumSmooth
 Material CTF Summary,WOOD SIDING,  0.0100,         0.110,    544.620,     1210.000,  0.9091E-01
 Material CTF Summary,STEEL FRAME NONRES WALL INSULATION,  0.0871,         0.049,    265.000,      836.800,   1.777    
 Material CTF Summary,1/2IN GYPSUM,  0.0127,         0.160,    784.900,      830.000,  0.7938E-01
 CTF,   8,      0.29352404E-06,      0.21667081E-13,      0.35360529E-06,     -0.46092124E-15
 CTF,   7,     -0.60566605E-04,      0.29134562E-08,     -0.69575737E-04,      0.21021400E-06
 CTF,   6,      0.38059658E-02,      0.23554326E-05,      0.44191861E-02,     -0.24497168E-04
 CTF,   5,     -0.10175274    ,      0.20009032E-03,     -0.12079776    ,      0.10639281E-02
 CTF,   4,       1.2532740    ,      0.34704467E-02,       1.5119018    ,     -0.21452771E-01
 CTF,   3,      -7.1417945    ,      0.14636765E-01,      -8.6530375    ,      0.20630576    
 CTF,   2,       18.692452    ,      0.14527359E-01,       22.553842    ,     -0.90306275    
 CTF,   1,      -21.635842    ,      0.25227931E-02,      -25.903090    ,       1.6482852    
 CTF,   0,       8.9652984    ,      0.21174748E-04,       10.642213    
 Construction CTF,IEAD NON-RES ROOF,   3,   3,   8,   0.250,     0.3762    ,   0.900,   0.900,   0.700,   0.700,VeryRough
 Material CTF Summary,ROOF MEMBRANE,  0.0095,         0.160,   1121.290,     1460.000,  0.5937E-01
 Material CTF Summary,IEAD NONRES ROOF INSULATION,  0.1273,         0.049,    265.000,      836.800,   2.599    
 Material CTF Summary,METAL DECKING,  0.0015,        45.006,   7680.000,      418.400,  0.3333E-04
 CTF,   8,      0.35756213E-09,      0.13429667E-11,      0.34154367E-08,     -0.64928706E-16
 CTF,   7,     -0.49883737E-02,     -0.75561003E-11,     -0.12934750E-01,      0.42854738E-09
 CTF,   6,      0.26966076    ,      0.15114288E-06,      0.30206146    ,     -0.16230743E-02
 CTF,   5,      -3.3860274    ,      0.25529694E-04,      -2.7593323    ,      0.35664382E-01
 CTF,   4,       18.554242    ,      0.46585679E-03,       12.814333    ,     -0.29766934    
 CTF,   3,      -52.114575    ,      0.17688114E-02,      -32.766556    ,       1.2089322    
 CTF,   2,       77.810831    ,      0.15714892E-02,       46.351565    ,      -2.5206134    
 CTF,   1,      -58.490392    ,      0.26475771E-03,      -33.810545    ,       2.5644120    
 CTF,   0,       17.365348    ,      0.29644365E-05,       9.8855070    
 Construction CTF,EXT-SLAB,   4,   2,   7,   0.250,      3.401    ,   0.900,   0.900,   0.700,   0.700,Rough
 Material CTF Summary,HW CONCRETE,  0.1016,         1.311,   2240.000,      836.800,  0.7750E-01
 Material CTF Summary,CP02 CARPET PAD,  0.0000,         0.000,      0.000,        0.000,  0.2165    
 CTF,   7,     -0.14426761E-14,     -0.11216295E-15,      0.18115577E-15,       0.0000000    
 CTF,   6,      0.61854545E-08,      0.71529315E-10,      0.38294470E-09,     -0.12051772E-10
 CTF,   5,     -0.39017051E-04,      0.90681176E-06,     -0.13371990E-05,      0.87414548E-07
 CTF,   4,      0.34236977E-01,      0.55998704E-03,      0.80711843E-03,     -0.11068378E-03
 CTF,   3,      -3.1281567    ,      0.29573512E-01,     -0.89402772E-01,      0.16843238E-01
 CTF,   2,       34.135338    ,      0.18637710    ,       1.5453328    ,     -0.32193439    
 CTF,   1,      -78.948674    ,      0.15572522    ,      -5.4253876    ,       1.1928954    
 CTF,   0,       48.289291    ,      0.97606854E-02,       4.3506483    
 Construction CTF,INT-WALLS,   5,   2,   3,   0.250,      6.299    ,   0.900,   0.900,   0.920,   0.920,Smooth
 Material CTF Summary,1/2IN GYPSUM,  0.0127,         0.160,    784.900,      830.000,  0.7938E-01
 Material CTF Summary,1/2IN GYPSUM,  0.0127,         0.160,    784.900,      830.000,  0.7938E-01
 CTF,   3,     -0.11851811E-06,      0.40118884E-07,     -0.11851811E-06,      0.41119444E-18
 CTF,   2,      0.76347016E-01,      0.27087202E-01,      0.76347016E-01,     -0.11601463E-06
 CTF,   1,      -6.1951394    ,       2.7652960    ,      -6.1951394    ,      0.36006832E-01
 CTF,   0,       12.191191    ,       3.2800154    ,       12.191191    
 Construction CTF,INT-FLOOR-TOPSIDE,   6,   2,   7,   0.250,      3.401    ,   0.900,   0.900,   0.700,   0.700,Rough
 Material CTF Summary,MAT-CC05 4 HW CONCRETE,  0.1016,         1.311,   2240.000,      836.800,  0.7750E-01
 Material CTF Summary,CP02 CARPET PAD,  0.0000,         0.000,      0.000,        0.000,  0.2165    
 CTF,   7,     -0.14426761E-14,     -0.11216295E-15,      0.18115577E-15,       0.0000000    
 CTF,   6,      0.61854545E-08,      0.71529315E-10,      0.38294470E-09,     -0.12051772E-10
 CTF,   5,     -0.39017051E-04,      0.90681176E-06,     -0.13371990E-05,      0.87414548E-07
 CTF,   4,      0.34236977E-01,      0.55998704E-03,      0.80711843E-03,     -0.11068378E-03
 CTF,   3,      -3.1281567    ,      0.29573512E-01,     -0.89402772E-01,      0.16843238E-01
 CTF,   2,       34.135338    ,      0.18637710    ,       1.5453328    ,     -0.32193439    
 CTF,   1,      -78.948674    ,      0.15572522    ,      -5.4253876    ,       1.1928954    
 CTF,   0,       48.289291    ,      0.97606854E-02,       4.3506483    
 Construction CTF,INT-FLOOR-UNDERSIDE,   7,   2,   7,   0.250,      3.401    ,   0.900,   0.900,   0.700,   0.700,VeryRough
 Material CTF Summary,CP02 CARPET PAD,  0.0000,         0.000,      0.000,        0.000,  0.2165    
 Material CTF Summary,MAT-CC05 4 HW CONCRETE,  0.1016,         1.311,   2240.000,      836.800,  0.7750E-01
 CTF,   7,      0.18115577E-15,     -0.11216295E-15,     -0.14426761E-14,       0.0000000    
 CTF,   6,      0.38294470E-09,      0.71529315E-10,      0.61854545E-08,     -0.12051772E-10
 CTF,   5,     -0.13371990E-05,      0.90681176E-06,     -0.39017051E-04,      0.87414548E-07
 CTF,   4,      0.80711843E-03,      0.55998704E-03,      0.34236977E-01,     -0.11068378E-03
 CTF,   3,     -0.89402772E-01,      0.29573512E-01,      -3.1281567    ,      0.16843238E-01
 CTF,   2,       1.5453328    ,      0.18637710    ,       34.135338    ,     -0.32193439    
 CTF,   1,      -5.4253876    ,      0.15572522    ,      -78.948674    ,       1.1928954    
 CTF,   0,       4.3506483    ,      0.97606854E-02,       48.289291    
 Construction CTF,DROPCEILING,   9,   1,   3,   0.250,      4.488    ,   0.900,   0.900,   0.700,   0.700,MediumSmooth
 Material CTF Summary,STD AC02,  0.0127,         0.057,    288.000,     1339.000,  0.2228    
 CTF,   3,     -0.53260828E-14,      0.38590732E-14,     -0.53260829E-14,       0.0000000    
 CTF,   2,      0.29572608E-03,      0.17480917E-03,      0.29572608E-03,     -0.50670342E-13
 CTF,   1,      -1.7155691    ,       1.0037059    ,      -1.7155691    ,      0.66704272E-03
 CTF,   0,       6.2004685    ,       3.4813145    ,       6.2004685    
 Construction CTF,AIR-WALL,  10,   1,   1,   0.250,      4.809    ,   0.900,   0.900,   0.700,   0.700,Rough
 Material CTF Summary,MAT-AIR-WALL,  0.0000,         0.000,      0.000,        0.000,  0.2079    
 CTF,   1,       0.0000000    ,       0.0000000    ,       0.0000000    ,       0.0000000    
 CTF,   0,       4.8088691    ,       4.8088691    ,       4.8088691    
 Construction CTF,INTERIORFURNISHINGS,  11,   1,   7,   0.250,     0.8000    ,   0.900,   0.900,   0.700,   0.700,MediumSmooth
 Material CTF Summary,STD WOOD 6INCH,  0.1500,         0.120,    540.000,     1210.000,   1.250    
 CTF,   7,     -0.19879948E-01,      0.18371110E-08,     -0.19879948E-01,      0.25920384E-02
 CTF,   6,      0.37833182    ,      0.93111392E-06,      0.37833182    ,     -0.50805208E-01
 CTF,   5,      -2.8822885    ,      0.33090332E-04,      -2.8822885    ,      0.40100636    
 CTF,   4,       11.391948    ,      0.23980383E-03,       11.391948    ,      -1.6521297    
 CTF,   3,      -25.286828    ,      0.46344169E-03,      -25.286828    ,       3.8446603    
 CTF,   2,       31.657742    ,      0.23933549E-03,       31.657742    ,      -5.0707043    
 CTF,   1,      -20.807361    ,      0.25331892E-04,      -20.807361    ,       3.5241279    
 CTF,   0,       5.5693388    ,      0.18852057E-06,       5.5693388    
! <WindowConstruction>,Construction Name,Index,#Layers,Roughness,Conductance {W/m2-K},SHGC,Solar Transmittance at Normal Incidence,Visible Transmittance at Normal Incidence
! <WindowMaterial:Glazing>, Material Name, Optical Data Type, Spectral Data Set Name, Thickness {m}, Solar Transmittance,Front Solar Reflectance, Back Solar Reflectance, Visible Transmittance, Front Visible Reflectance,Back Visible Reflectance,Infrared Transmittance, Front Thermal Emissivity, Back Thermal Emissivity,Conductivity {W/m-K},Dirt Factor,Solar Diffusing
! <WindowMaterial:Gas>,Material Name,GasType,Thickness {m}
 WindowConstruction,SKYLIGHT CONS 456,1,3,VerySmooth,2.674,0.414,0.272,0.260
 WindowMaterial:Glazing,SKYLIGHT PLEXI ATOFINA 2602,SpectralAverage,,2.99700E-003,0.50700,0.22100,0.22200,0.48600,0.30000,0.30000,0.00000,0.90000,0.90000,0.18700,1.00000,No
 WindowMaterial:Gas,AIR,Air,1.270E-002
 WindowMaterial:Glazing,SKYLIGHT PLEXI ATOFINA 2602,SpectralAverage,,2.99700E-003,0.50700,0.22100,0.22200,0.48600,0.30000,0.30000,0.00000,0.90000,0.90000,0.18700,1.00000,No
 WindowConstruction,WINDOW NON-RES FIXED,8,1,VerySmooth,3.241,0.385,0.305,0.305
 WindowMaterial:Glazing,NONRES FIXED ASSEMBLY WINDOW,SpectralAverage,,2.00000E-003,0.30403,0.46624,0.46624,0.30403,0.46624,0.46624,0.00000,0.84000,0.84000,1.43749E-002,1.00000,No
! <Shadowing/Sun Position Calculations> [Annual Simulations], Calculation Method,Value {days}, Allowable Number Figures in Shadow Overlap {}, Polygon Clipping Algorithm, Sky Diffuse Modeling Algorithm
Shadowing/Sun Position Calculations,AverageOverDaysInFrequency,7,15000,SutherlandHodgman,SimpleSkyDiffuseModeling
! <#Refrigeration Compressor Racks>,Number of Refrigeration Compressor Racks
! <Refrigeration Compressor Rack>,Compressor Rack Name, # Refrigerated Cases Connected,# WalkIn Coolers Connected, Heat Rejection Location, Condenser Type, COP
!  <Refrigeration Case>,Refrigeration Case Number, Refrigeration Case Name,Zone Name,Zone Node #,Zone Node Name,Capacity (W/m),LHR,Temperature (C),Length (m),Fan (W/m),Installed Lighting (W/m),Anti-Sweat (W/m),Defrost (W/m)
#Refrigeration Compressor Racks, 2
 Refrigeration Compressor Rack,RACK1,1,0,Outdoors,Air-Cooled,1.500
   Refrigeration Case,1,KITCHEN_ZN_1_FLR_1_CASE:1_WALKINFREEZER,KITCHEN_ZN_1_FLR_1,301,KITCHEN_ZN_1_FLR_1 AIR NODE,734.0,0.10,-23.0,7.3,68.3,33.0,0.0,410.0
 Refrigeration Compressor Rack,RACK2,1,0,Outdoors,Air-Cooled,3.000
   Refrigeration Case,2,KITCHEN_ZN_1_FLR_1_CASE:2_SELFCONTAINEDDISPLAYCASE,KITCHEN_ZN_1_FLR_1,301,KITCHEN_ZN_1_FLR_1 AIR NODE,734.0,8.00E-002,2.0,7.3,55.0,33.0,0.0,0.0
! <Water Heater Information>,Type,Name,Volume {m3},Maximum Capacity {W},Standard Rated Recovery Efficiency, Standard Rated Energy Factor
! <Surface Convection Parameters>, Surface Name, Outside Model Assignment, Outside Area [m2], Outside Perimeter [m], Outside Height [m], Inside Model Assignment, Inside Height [cm], Inside Perimeter Envelope [m], Inside Hydraulic Diameter [m], Window Wall Ratio [ ], Window Location [ ], Near Radiant [Yes/No], Has Active HVAC [Yes/No]
Surface Convection Parameters,AUDITORIUM_ZN_1_FLR_1_WALL_1,0,0.00,0.00,0.00,0,8.00,128.00,30.88,0.21,0,No,No
Surface Convection Parameters,AUDITORIUM_ZN_1_FLR_1_WALL_2,0,0.00,0.00,0.00,0,8.00,128.00,30.88,0.21,0,No,No
Surface Convection Parameters,AUDITORIUM_ZN_1_FLR_1_WALL_3,0,2152.00,366.41,8.00,0,8.00,128.00,30.88,0.21,4,No,No
Surface Convection Parameters,AUDITORIUM_ZN_1_FLR_1_WALL_3_WINDOW_1,0,2152.00,366.41,8.00,0,8.00,128.00,30.88,0.21,1,No,No
Surface Convection Parameters,AUDITORIUM_ZN_1_FLR_1_WALL_4,0,1040.00,277.20,8.00,0,8.00,128.00,30.88,0.21,3,No,No
Surface Convection Parameters,AUDITORIUM_ZN_1_FLR_2_WALL_1,0,0.00,0.00,0.00,0,8.00,128.00,30.88,0.21,0,No,No
Surface Convection Parameters,AUDITORIUM_ZN_1_FLR_2_WALL_2,0,0.00,0.00,0.00,0,8.00,128.00,30.88,0.21,0,No,No
Surface Convection Parameters,AUDITORIUM_ZN_1_FLR_2_WALL_3,0,2152.00,366.41,8.00,0,8.00,128.00,30.88,0.21,4,No,No
Surface Convection Parameters,AUDITORIUM_ZN_1_FLR_2_WALL_3_WINDOW_1,0,2152.00,366.41,8.00,0,8.00,128.00,30.88,0.21,2,No,No
Surface Convection Parameters,AUDITORIUM_ZN_1_FLR_2_WALL_4,0,1040.00,277.20,8.00,0,8.00,128.00,30.88,0.21,4,No,No
Surface Convection Parameters,AUDITORIUM_ZN_1_FLR_1_FLOOR,0,0.00,0.00,0.00,0,8.00,128.00,30.88,0.21,0,No,No
Surface Convection Parameters,AUDITORIUM_ZN_1_FLR_2_CEILING,0,11891.48,510.76,0.00,0,8.00,128.00,30.88,0.21,0,No,No
Surface Convection Parameters,AUDITORIUM_ZN_1_FLR_1 INTERNAL MASS,0,0.00,0.00,0.00,0,8.00,128.00,30.88,0.21,0,No,No
Surface Convection Parameters,AUX_GYM_ZN_1_FLR_1_WALL_1,0,2152.00,341.22,8.00,0,8.00,152.00,32.84,0.44,4,No,No
Surface Convection Parameters,AUX_GYM_ZN_1_FLR_1_WALL_1_WINDOW_1,0,2152.00,341.22,8.00,0,8.00,152.00,32.84,0.44,1,No,No
Surface Convection Parameters,AUX_GYM_ZN_1_FLR_1_WALL_2,0,1040.00,366.41,8.00,0,8.00,152.00,32.84,0.44,4,No,No
Surface Convection Parameters,AUX_GYM_ZN_1_FLR_1_WALL_2_WINDOW_1,0,1040.00,366.41,8.00,0,8.00,152.00,32.84,0.44,1,No,No
Surface Convection Parameters,AUX_GYM_ZN_1_FLR_1_WALL_3,0,0.00,0.00,0.00,0,8.00,152.00,32.84,0.44,0,No,No
Surface Convection Parameters,AUX_GYM_ZN_1_FLR_1_WALL_4,0,0.00,0.00,0.00,0,8.00,152.00,32.84,0.44,0,No,No
Surface Convection Parameters,AUX_GYM_ZN_1_FLR_2_WALL_1,0,2152.00,341.22,8.00,0,8.00,152.00,32.84,0.44,4,No,No
Surface Convection Parameters,AUX_GYM_ZN_1_FLR_2_WALL_1_WINDOW_1,0,2152.00,341.22,8.00,0,8.00,152.00,32.84,0.44,2,No,No
Surface Convection Parameters,AUX_GYM_ZN_1_FLR_2_WALL_2,0,1040.00,366.41,8.00,0,8.00,152.00,32.84,0.44,4,No,No
Surface Convection Parameters,AUX_GYM_ZN_1_FLR_2_WALL_2_WINDOW_1,0,1040.00,366.41,8.00,0,8.00,152.00,32.84,0.44,2,No,No
Surface Convection Parameters,AUX_GYM_ZN_1_FLR_2_WALL_3,0,0.00,0.00,0.00,0,8.00,152.00,32.84,0.44,0,No,No
Surface Convection Parameters,AUX_GYM_ZN_1_FLR_2_WALL_4,0,0.00,0.00,0.00,0,8.00,152.00,32.84,0.44,0,No,No
Surface Convection Parameters,AUX_GYM_ZN_1_FLR_1_FLOOR,0,0.00,0.00,0.00,0,8.00,152.00,32.84,0.44,0,No,No
Surface Convection Parameters,AUX_GYM_ZN_1_FLR_2_CEILING,0,11891.48,510.76,0.00,0,8.00,152.00,32.84,0.44,0,No,No
Surface Convection Parameters,AUX_GYM_ZN_1_FLR_2_SKYLIGHT_1,0,11891.48,510.76,0.00,0,8.00,152.00,32.84,0.44,2,No,No
Surface Convection Parameters,AUX_GYM_ZN_1_FLR_2_SKYLIGHT_10,0,11891.48,510.76,0.00,0,8.00,152.00,32.84,0.44,2,No,No
Surface Convection Parameters,AUX_GYM_ZN_1_FLR_2_SKYLIGHT_11,0,11891.48,510.76,0.00,0,8.00,152.00,32.84,0.44,2,No,No
Surface Convection Parameters,AUX_GYM_ZN_1_FLR_2_SKYLIGHT_12,0,11891.48,510.76,0.00,0,8.00,152.00,32.84,0.44,2,No,No
Surface Convection Parameters,AUX_GYM_ZN_1_FLR_2_SKYLIGHT_13,0,11891.48,510.76,0.00,0,8.00,152.00,32.84,0.44,2,No,No
Surface Convection Parameters,AUX_GYM_ZN_1_FLR_2_SKYLIGHT_14,0,11891.48,510.76,0.00,0,8.00,152.00,32.84,0.44,2,No,No
Surface Convection Parameters,AUX_GYM_ZN_1_FLR_2_SKYLIGHT_15,0,11891.48,510.76,0.00,0,8.00,152.00,32.84,0.44,2,No,No
Surface Convection Parameters,AUX_GYM_ZN_1_FLR_2_SKYLIGHT_16,0,11891.48,510.76,0.00,0,8.00,152.00,32.84,0.44,2,No,No
Surface Convection Parameters,AUX_GYM_ZN_1_FLR_2_SKYLIGHT_17,0,11891.48,510.76,0.00,0,8.00,152.00,32.84,0.44,2,No,No
Surface Convection Parameters,AUX_GYM_ZN_1_FLR_2_SKYLIGHT_18,0,11891.48,510.76,0.00,0,8.00,152.00,32.84,0.44,2,No,No
Surface Convection Parameters,AUX_GYM_ZN_1_FLR_2_SKYLIGHT_19,0,11891.48,510.76,0.00,0,8.00,152.00,32.84,0.44,2,No,No
Surface Convection Parameters,AUX_GYM_ZN_1_FLR_2_SKYLIGHT_2,0,11891.48,510.76,0.00,0,8.00,152.00,32.84,0.44,2,No,No
Surface Convection Parameters,AUX_GYM_ZN_1_FLR_2_SKYLIGHT_20,0,11891.48,510.76,0.00,0,8.00,152.00,32.84,0.44,2,No,No
Surface Convection Parameters,AUX_GYM_ZN_1_FLR_2_SKYLIGHT_21,0,11891.48,510.76,0.00,0,8.00,152.00,32.84,0.44,2,No,No
Surface Convection Parameters,AUX_GYM_ZN_1_FLR_2_SKYLIGHT_22,0,11891.48,510.76,0.00,0,8.00,152.00,32.84,0.44,2,No,No
Surface Convection Parameters,AUX_GYM_ZN_1_FLR_2_SKYLIGHT_23,0,11891.48,510.76,0.00,0,8.00,152.00,32.84,0.44,2,No,No
Surface Convection Parameters,AUX_GYM_ZN_1_FLR_2_SKYLIGHT_24,0,11891.48,510.76,0.00,0,8.00,152.00,32.84,0.44,2,No,No
Surface Convection Parameters,AUX_GYM_ZN_1_FLR_2_SKYLIGHT_25,0,11891.48,510.76,0.00,0,8.00,152.00,32.84,0.44,2,No,No
Surface Convection Parameters,AUX_GYM_ZN_1_FLR_2_SKYLIGHT_26,0,11891.48,510.76,0.00,0,8.00,152.00,32.84,0.44,2,No,No
Surface Convection Parameters,AUX_GYM_ZN_1_FLR_2_SKYLIGHT_27,0,11891.48,510.76,0.00,0,8.00,152.00,32.84,0.44,2,No,No
Surface Convection Parameters,AUX_GYM_ZN_1_FLR_2_SKYLIGHT_28,0,11891.48,510.76,0.00,0,8.00,152.00,32.84,0.44,2,No,No
Surface Convection Parameters,AUX_GYM_ZN_1_FLR_2_SKYLIGHT_29,0,11891.48,510.76,0.00,0,8.00,152.00,32.84,0.44,2,No,No
Surface Convection Parameters,AUX_GYM_ZN_1_FLR_2_SKYLIGHT_3,0,11891.48,510.76,0.00,0,8.00,152.00,32.84,0.44,2,No,No
Surface Convection Parameters,AUX_GYM_ZN_1_FLR_2_SKYLIGHT_30,0,11891.48,510.76,0.00,0,8.00,152.00,32.84,0.44,2,No,No
Surface Convection Parameters,AUX_GYM_ZN_1_FLR_2_SKYLIGHT_31,0,11891.48,510.76,0.00,0,8.00,152.00,32.84,0.44,2,No,No
Surface Convection Parameters,AUX_GYM_ZN_1_FLR_2_SKYLIGHT_32,0,11891.48,510.76,0.00,0,8.00,152.00,32.84,0.44,2,No,No
Surface Convection Parameters,AUX_GYM_ZN_1_FLR_2_SKYLIGHT_33,0,11891.48,510.76,0.00,0,8.00,152.00,32.84,0.44,2,No,No
Surface Convection Parameters,AUX_GYM_ZN_1_FLR_2_SKYLIGHT_34,0,11891.48,510.76,0.00,0,8.00,152.00,32.84,0.44,2,No,No
Surface Convection Parameters,AUX_GYM_ZN_1_FLR_2_SKYLIGHT_35,0,11891.48,510.76,0.00,0,8.00,152.00,32.84,0.44,2,No,No
Surface Convection Parameters,AUX_GYM_ZN_1_FLR_2_SKYLIGHT_36,0,11891.48,510.76,0.00,0,8.00,152.00,32.84,0.44,2,No,No
Surface Convection Parameters,AUX_GYM_ZN_1_FLR_2_SKYLIGHT_4,0,11891.48,510.76,0.00,0,8.00,152.00,32.84,0.44,2,No,No
Surface Convection Parameters,AUX_GYM_ZN_1_FLR_2_SKYLIGHT_5,0,11891.48,510.76,0.00,0,8.00,152.00,32.84,0.44,2,No,No
Surface Convection Parameters,AUX_GYM_ZN_1_FLR_2_SKYLIGHT_6,0,11891.48,510.76,0.00,0,8.00,152.00,32.84,0.44,2,No,No
Surface Convection Parameters,AUX_GYM_ZN_1_FLR_2_SKYLIGHT_7,0,11891.48,510.76,0.00,0,8.00,152.00,32.84,0.44,2,No,No
Surface Convection Parameters,AUX_GYM_ZN_1_FLR_2_SKYLIGHT_8,0,11891.48,510.76,0.00,0,8.00,152.00,32.84,0.44,2,No,No
Surface Convection Parameters,AUX_GYM_ZN_1_FLR_2_SKYLIGHT_9,0,11891.48,510.76,0.00,0,8.00,152.00,32.84,0.44,2,No,No
Surface Convection Parameters,AUX_GYM_ZN_1_FLR_1 INTERNAL MASS,0,0.00,0.00,0.00,0,8.00,152.00,32.84,0.44,0,No,No
Surface Convection Parameters,BATHROOMS_ZN_1_FLR_1_WALL_1,0,0.00,0.00,0.00,0,4.00,29.00,14.48,0.22,0,No,No
Surface Convection Parameters,BATHROOMS_ZN_1_FLR_1_WALL_2,0,1040.00,366.41,8.00,0,4.00,29.00,14.48,0.22,4,No,No
Surface Convection Parameters,BATHROOMS_ZN_1_FLR_1_WALL_3,0,1040.00,366.41,8.00,0,4.00,29.00,14.48,0.22,4,No,No
Surface Convection Parameters,BATHROOMS_ZN_1_FLR_1_WALL_3_WINDOW_1,0,1040.00,366.41,8.00,0,4.00,29.00,14.48,0.22,1,No,No
Surface Convection Parameters,BATHROOMS_ZN_1_FLR_1_WALL_4,0,2152.00,366.41,8.00,0,4.00,29.00,14.48,0.22,4,No,No
Surface Convection Parameters,BATHROOMS_ZN_1_FLR_1_WALL_4_WINDOW_1,0,2152.00,366.41,8.00,0,4.00,29.00,14.48,0.22,1,No,No
Surface Convection Parameters,BATHROOMS_ZN_1_FLR_1_WALL_5,0,0.00,0.00,0.00,0,4.00,29.00,14.48,0.22,0,No,No
Surface Convection Parameters,BATHROOMS_ZN_1_FLR_1_WALL_6,0,0.00,0.00,0.00,0,4.00,29.00,14.48,0.22,0,No,No
Surface Convection Parameters,BATHROOMS_ZN_1_FLR_1_FLOOR,0,0.00,0.00,0.00,0,4.00,29.00,14.48,0.22,0,No,No
Surface Convection Parameters,BATHROOMS_ZN_1_FLR_1_CEILING,0,0.00,0.00,0.00,0,4.00,29.00,14.48,0.22,0,No,No
Surface Convection Parameters,BATHROOMS_ZN_1_FLR_1 INTERNAL MASS,0,0.00,0.00,0.00,0,4.00,29.00,14.48,0.22,0,No,No
Surface Convection Parameters,BATHROOMS_ZN_1_FLR_2_WALL_1,0,0.00,0.00,0.00,0,4.00,29.00,14.48,0.22,0,No,No
Surface Convection Parameters,BATHROOMS_ZN_1_FLR_2_WALL_2,0,1040.00,366.41,8.00,0,4.00,29.00,14.48,0.22,4,No,No
Surface Convection Parameters,BATHROOMS_ZN_1_FLR_2_WALL_3,0,1040.00,366.41,8.00,0,4.00,29.00,14.48,0.22,4,No,No
Surface Convection Parameters,BATHROOMS_ZN_1_FLR_2_WALL_3_WINDOW_1,0,1040.00,366.41,8.00,0,4.00,29.00,14.48,0.22,1,No,No
Surface Convection Parameters,BATHROOMS_ZN_1_FLR_2_WALL_4,0,2152.00,366.41,8.00,0,4.00,29.00,14.48,0.22,4,No,No
Surface Convection Parameters,BATHROOMS_ZN_1_FLR_2_WALL_4_WINDOW_1,0,2152.00,366.41,8.00,0,4.00,29.00,14.48,0.22,1,No,No
Surface Convection Parameters,BATHROOMS_ZN_1_FLR_2_WALL_5,0,0.00,0.00,0.00,0,4.00,29.00,14.48,0.22,0,No,No
Surface Convection Parameters,BATHROOMS_ZN_1_FLR_2_WALL_6,0,0.00,0.00,0.00,0,4.00,29.00,14.48,0.22,0,No,No
Surface Convection Parameters,BATHROOMS_ZN_1_FLR_2_FLOOR,0,0.00,0.00,0.00,0,4.00,29.00,14.48,0.22,0,No,No
Surface Convection Parameters,BATHROOMS_ZN_1_FLR_2_CEILING,0,11891.48,510.76,0.00,0,4.00,29.00,14.48,0.22,0,No,No
Surface Convection Parameters,BATHROOMS_ZN_1_FLR_2 INTERNAL MASS,0,0.00,0.00,0.00,0,4.00,29.00,14.48,0.22,0,No,No
Surface Convection Parameters,CAFETERIA_ZN_1_FLR_1_WALL_1,0,0.00,0.00,0.00,0,4.00,50.00,24.96,0.35,0,No,No
Surface Convection Parameters,CAFETERIA_ZN_1_FLR_1_WALL_2,0,1040.00,366.41,8.00,0,4.00,50.00,24.96,0.35,4,No,No
Surface Convection Parameters,CAFETERIA_ZN_1_FLR_1_WALL_2_WINDOW_1,0,1040.00,366.41,8.00,0,4.00,50.00,24.96,0.35,1,No,No
Surface Convection Parameters,CAFETERIA_ZN_1_FLR_1_WALL_3,0,2152.00,366.41,8.00,0,4.00,50.00,24.96,0.35,4,No,No
Surface Convection Parameters,CAFETERIA_ZN_1_FLR_1_WALL_3_WINDOW_1,0,2152.00,366.41,8.00,0,4.00,50.00,24.96,0.35,1,No,No
Surface Convection Parameters,CAFETERIA_ZN_1_FLR_1_WALL_4,0,0.00,0.00,0.00,0,4.00,50.00,24.96,0.35,0,No,No
Surface Convection Parameters,CAFETERIA_ZN_1_FLR_1_FLOOR,0,0.00,0.00,0.00,0,4.00,50.00,24.96,0.35,0,No,No
Surface Convection Parameters,CAFETERIA_ZN_1_FLR_1_CEILING,0,0.00,0.00,0.00,0,4.00,50.00,24.96,0.35,0,No,No
Surface Convection Parameters,CAFETERIA_ZN_1_FLR_1 INTERNAL MASS,0,0.00,0.00,0.00,0,4.00,50.00,24.96,0.35,0,No,No
Surface Convection Parameters,CORNER_CLASS_1_POD_1_ZN_1_FLR_1_WALL_1,0,2152.00,341.22,8.00,0,4.00,20.00,9.90,0.35,4,No,No
Surface Convection Parameters,CORNER_CLASS_1_POD_1_ZN_1_FLR_1_WALL_1_WINDOW_1,0,2152.00,341.22,8.00,0,4.00,20.00,9.90,0.35,1,No,No
Surface Convection Parameters,CORNER_CLASS_1_POD_1_ZN_1_FLR_1_WALL_2,0,0.00,0.00,0.00,0,4.00,20.00,9.90,0.35,0,No,No
Surface Convection Parameters,CORNER_CLASS_1_POD_1_ZN_1_FLR_1_WALL_3,0,0.00,0.00,0.00,0,4.00,20.00,9.90,0.35,0,No,No
Surface Convection Parameters,CORNER_CLASS_1_POD_1_ZN_1_FLR_1_WALL_4,0,1040.00,277.20,8.00,0,4.00,20.00,9.90,0.35,4,No,No
Surface Convection Parameters,CORNER_CLASS_1_POD_1_ZN_1_FLR_1_WALL_4_WINDOW_1,0,1040.00,277.20,8.00,0,4.00,20.00,9.90,0.35,1,No,No
Surface Convection Parameters,CORNER_CLASS_1_POD_1_ZN_1_FLR_1_FLOOR,0,0.00,0.00,0.00,0,4.00,20.00,9.90,0.35,0,No,No
Surface Convection Parameters,CORNER_CLASS_1_POD_1_ZN_1_FLR_1_CEILING,0,0.00,0.00,0.00,0,4.00,20.00,9.90,0.35,0,No,No
Surface Convection Parameters,CORNER_CLASS_1_POD_1_ZN_1_FLR_1 INTERNAL MASS,0,0.00,0.00,0.00,0,4.00,20.00,9.90,0.35,0,No,No
Surface Convection Parameters,CORNER_CLASS_1_POD_1_ZN_1_FLR_2_WALL_1,0,2152.00,341.22,8.00,0,4.00,20.00,9.90,0.35,4,No,No
Surface Convection Parameters,CORNER_CLASS_1_POD_1_ZN_1_FLR_2_WALL_1_WINDOW_1,0,2152.00,341.22,8.00,0,4.00,20.00,9.90,0.35,1,No,No
Surface Convection Parameters,CORNER_CLASS_1_POD_1_ZN_1_FLR_2_WALL_2,0,0.00,0.00,0.00,0,4.00,20.00,9.90,0.35,0,No,No
Surface Convection Parameters,CORNER_CLASS_1_POD_1_ZN_1_FLR_2_WALL_3,0,0.00,0.00,0.00,0,4.00,20.00,9.90,0.35,0,No,No
Surface Convection Parameters,CORNER_CLASS_1_POD_1_ZN_1_FLR_2_WALL_4,0,1040.00,277.20,8.00,0,4.00,20.00,9.90,0.35,4,No,No
Surface Convection Parameters,CORNER_CLASS_1_POD_1_ZN_1_FLR_2_WALL_4_WINDOW_1,0,1040.00,277.20,8.00,0,4.00,20.00,9.90,0.35,1,No,No
Surface Convection Parameters,CORNER_CLASS_1_POD_1_ZN_1_FLR_2_FLOOR,0,0.00,0.00,0.00,0,4.00,20.00,9.90,0.35,0,No,No
Surface Convection Parameters,CORNER_CLASS_1_POD_1_ZN_1_FLR_2_CEILING,0,11891.48,510.76,0.00,0,4.00,20.00,9.90,0.35,0,No,No
Surface Convection Parameters,CORNER_CLASS_1_POD_1_ZN_1_FLR_2 INTERNAL MASS,0,0.00,0.00,0.00,0,4.00,20.00,9.90,0.35,0,No,No
Surface Convection Parameters,CORNER_CLASS_1_POD_2_ZN_1_FLR_1_WALL_1,0,2152.00,341.22,8.00,0,4.00,20.00,9.90,0.35,4,No,No
Surface Convection Parameters,CORNER_CLASS_1_POD_2_ZN_1_FLR_1_WALL_1_WINDOW_1,0,2152.00,341.22,8.00,0,4.00,20.00,9.90,0.35,1,No,No
Surface Convection Parameters,CORNER_CLASS_1_POD_2_ZN_1_FLR_1_WALL_2,0,0.00,0.00,0.00,0,4.00,20.00,9.90,0.35,0,No,No
Surface Convection Parameters,CORNER_CLASS_1_POD_2_ZN_1_FLR_1_WALL_3,0,0.00,0.00,0.00,0,4.00,20.00,9.90,0.35,0,No,No
Surface Convection Parameters,CORNER_CLASS_1_POD_2_ZN_1_FLR_1_WALL_4,0,1040.00,277.20,8.00,0,4.00,20.00,9.90,0.35,4,No,No
Surface Convection Parameters,CORNER_CLASS_1_POD_2_ZN_1_FLR_1_WALL_4_WINDOW_1,0,1040.00,277.20,8.00,0,4.00,20.00,9.90,0.35,1,No,No
Surface Convection Parameters,CORNER_CLASS_1_POD_2_ZN_1_FLR_1_FLOOR,0,0.00,0.00,0.00,0,4.00,20.00,9.90,0.35,0,No,No
Surface Convection Parameters,CORNER_CLASS_1_POD_2_ZN_1_FLR_1_CEILING,0,0.00,0.00,0.00,0,4.00,20.00,9.90,0.35,0,No,No
Surface Convection Parameters,CORNER_CLASS_1_POD_2_ZN_1_FLR_1 INTERNAL MASS,0,0.00,0.00,0.00,0,4.00,20.00,9.90,0.35,0,No,No
Surface Convection Parameters,CORNER_CLASS_1_POD_2_ZN_1_FLR_2_WALL_1,0,2152.00,341.22,8.00,0,4.00,20.00,9.90,0.35,4,No,No
Surface Convection Parameters,CORNER_CLASS_1_POD_2_ZN_1_FLR_2_WALL_1_WINDOW_1,0,2152.00,341.22,8.00,0,4.00,20.00,9.90,0.35,1,No,No
Surface Convection Parameters,CORNER_CLASS_1_POD_2_ZN_1_FLR_2_WALL_2,0,0.00,0.00,0.00,0,4.00,20.00,9.90,0.35,0,No,No
Surface Convection Parameters,CORNER_CLASS_1_POD_2_ZN_1_FLR_2_WALL_3,0,0.00,0.00,0.00,0,4.00,20.00,9.90,0.35,0,No,No
Surface Convection Parameters,CORNER_CLASS_1_POD_2_ZN_1_FLR_2_WALL_4,0,1040.00,277.20,8.00,0,4.00,20.00,9.90,0.35,4,No,No
Surface Convection Parameters,CORNER_CLASS_1_POD_2_ZN_1_FLR_2_WALL_4_WINDOW_1,0,1040.00,277.20,8.00,0,4.00,20.00,9.90,0.35,1,No,No
Surface Convection Parameters,CORNER_CLASS_1_POD_2_ZN_1_FLR_2_FLOOR,0,0.00,0.00,0.00,0,4.00,20.00,9.90,0.35,0,No,No
Surface Convection Parameters,CORNER_CLASS_1_POD_2_ZN_1_FLR_2_CEILING,0,11891.48,510.76,0.00,0,4.00,20.00,9.90,0.35,0,No,No
Surface Convection Parameters,CORNER_CLASS_1_POD_2_ZN_1_FLR_2 INTERNAL MASS,0,0.00,0.00,0.00,0,4.00,20.00,9.90,0.35,0,No,No
Surface Convection Parameters,CORNER_CLASS_1_POD_3_ZN_1_FLR_1_WALL_1,0,2152.00,341.22,8.00,0,4.00,20.00,9.90,0.35,4,No,No
Surface Convection Parameters,CORNER_CLASS_1_POD_3_ZN_1_FLR_1_WALL_1_WINDOW_1,0,2152.00,341.22,8.00,0,4.00,20.00,9.90,0.35,1,No,No
Surface Convection Parameters,CORNER_CLASS_1_POD_3_ZN_1_FLR_1_WALL_2,0,0.00,0.00,0.00,0,4.00,20.00,9.90,0.35,0,No,No
Surface Convection Parameters,CORNER_CLASS_1_POD_3_ZN_1_FLR_1_WALL_3,0,0.00,0.00,0.00,0,4.00,20.00,9.90,0.35,0,No,No
Surface Convection Parameters,CORNER_CLASS_1_POD_3_ZN_1_FLR_1_WALL_4,0,1040.00,277.20,8.00,0,4.00,20.00,9.90,0.35,4,No,No
Surface Convection Parameters,CORNER_CLASS_1_POD_3_ZN_1_FLR_1_WALL_4_WINDOW_1,0,1040.00,277.20,8.00,0,4.00,20.00,9.90,0.35,1,No,No
Surface Convection Parameters,CORNER_CLASS_1_POD_3_ZN_1_FLR_1_FLOOR,0,0.00,0.00,0.00,0,4.00,20.00,9.90,0.35,0,No,No
Surface Convection Parameters,CORNER_CLASS_1_POD_3_ZN_1_FLR_1_CEILING,0,0.00,0.00,0.00,0,4.00,20.00,9.90,0.35,0,No,No
Surface Convection Parameters,CORNER_CLASS_1_POD_3_ZN_1_FLR_1 INTERNAL MASS,0,0.00,0.00,0.00,0,4.00,20.00,9.90,0.35,0,No,No
Surface Convection Parameters,CORNER_CLASS_1_POD_3_ZN_1_FLR_2_WALL_1,0,2152.00,341.22,8.00,0,4.00,20.00,9.90,0.35,4,No,No
Surface Convection Parameters,CORNER_CLASS_1_POD_3_ZN_1_FLR_2_WALL_1_WINDOW_1,0,2152.00,341.22,8.00,0,4.00,20.00,9.90,0.35,1,No,No
Surface Convection Parameters,CORNER_CLASS_1_POD_3_ZN_1_FLR_2_WALL_2,0,0.00,0.00,0.00,0,4.00,20.00,9.90,0.35,0,No,No
[...]
HeatTransfer_Surface,MULT_CLASS_2_POD_3_ZN_1_FLR_1_WALL_3_WINDOW_1,Window,MULT_CLASS_2_POD_3_ZN_1_FLR_1_WALL_3,Window5 Detailed Fenestration,WINDOW NON-RES FIXED,N/A,3.241,No,74.20,74.20,74.20,0.00,90.00,52.90,1.40,0.00,ExternalEnvironment,DOE-2,ASHRAETARP,SunExposed,WindExposed,0.50,0.50,0.50,0.50,4
HeatTransfer_Surface,MULT_CLASS_2_POD_3_ZN_1_FLR_1_WALL_4,Wall,,CTF - ConductionTransferFunction,INT-WALLS,6.299,3.242,,36.00,36.00,36.00,270.00,90.00,9.00,4.00,0.00,CORNER_CLASS_2_POD_3_ZN_1_FLR_1_WALL_2,Other/Same Surface Int Conv,ASHRAETARP,NoSun,NoWind,0.50,0.50,0.50,0.50,4
HeatTransfer_Surface,MULT_CLASS_2_POD_3_ZN_1_FLR_1_FLOOR,Floor,,CTF - ConductionTransferFunction,EXT-SLAB,3.401,1.862,,477.00,477.00,477.00,270.00,180.00,9.00,53.00,0.00,Ground,N/A-Ground,ASHRAETARP,NoSun,NoWind,1.00,0.00,1.00,0.00,4
HeatTransfer_Surface,MULT_CLASS_2_POD_3_ZN_1_FLR_1_CEILING,Roof,,CTF - ConductionTransferFunction,INT-FLOOR-UNDERSIDE,3.401,2.073,,477.00,477.00,477.00,90.00,0.00,9.00,53.00,0.00,MULT_CLASS_2_POD_3_ZN_1_FLR_2_FLOOR,Other/Same Surface Int Conv,ASHRAETARP,NoSun,NoWind,0.00,1.00,0.00,1.00,4
HeatTransfer_Surface,MULT_CLASS_2_POD_3_ZN_1_FLR_1 INTERNAL MASS,Internal Mass,,CTF - ConductionTransferFunction,INTERIORFURNISHINGS,0.800,0.800,,954.00,954.00,954.00,0.00,90.00,954.00,1.00,0.00,MULT_CLASS_2_POD_3_ZN_1_FLR_1 INTERNAL MASS,Other/Same Surface Int Conv,ASHRAETARP,NoSun,NoWind,0.00,0.50,1.00,0.00,0
Zone_Surfaces,MULT_CLASS_2_POD_3_ZN_1_FLR_2,    8
HeatTransfer_Surface,MULT_CLASS_2_POD_3_ZN_1_FLR_2_WALL_1,Wall,,CTF - ConductionTransferFunction,INT-WALLS,6.299,3.242,,212.00,212.00,212.00,180.00,90.00,53.00,4.00,0.00,CORRIDOR_POD_3_ZN_1_FLR_2_WALL_4,Other/Same Surface Int Conv,ASHRAETARP,NoSun,NoWind,0.50,0.50,0.50,0.50,4
HeatTransfer_Surface,MULT_CLASS_2_POD_3_ZN_1_FLR_2_WALL_2,Wall,,CTF - ConductionTransferFunction,INT-WALLS,6.299,3.242,,36.00,36.00,36.00,90.00,90.00,9.00,4.00,0.00,BATHROOMS_ZN_1_FLR_2_WALL_5,Other/Same Surface Int Conv,ASHRAETARP,NoSun,NoWind,0.50,0.50,0.50,0.50,4
HeatTransfer_Surface,MULT_CLASS_2_POD_3_ZN_1_FLR_2_WALL_3,Wall,,CTF - ConductionTransferFunction,STEEL FRAME NON-RES EXT WALL,0.514,0.477,,137.80,212.00,137.80,0.00,90.00,53.00,4.00,0.00,ExternalEnvironment,DOE-2,ASHRAETARP,SunExposed,WindExposed,0.50,0.50,0.50,0.50,4
HeatTransfer_Surface,MULT_CLASS_2_POD_3_ZN_1_FLR_2_WALL_3_WINDOW_1,Window,MULT_CLASS_2_POD_3_ZN_1_FLR_2_WALL_3,Window5 Detailed Fenestration,WINDOW NON-RES FIXED,N/A,3.241,No,74.20,74.20,74.20,0.00,90.00,52.90,1.40,0.00,ExternalEnvironment,DOE-2,ASHRAETARP,SunExposed,WindExposed,0.50,0.50,0.50,0.50,4
HeatTransfer_Surface,MULT_CLASS_2_POD_3_ZN_1_FLR_2_WALL_4,Wall,,CTF - ConductionTransferFunction,INT-WALLS,6.299,3.242,,36.00,36.00,36.00,270.00,90.00,9.00,4.00,0.00,CORNER_CLASS_2_POD_3_ZN_1_FLR_2_WALL_2,Other/Same Surface Int Conv,ASHRAETARP,NoSun,NoWind,0.50,0.50,0.50,0.50,4
HeatTransfer_Surface,MULT_CLASS_2_POD_3_ZN_1_FLR_2_FLOOR,Floor,,CTF - ConductionTransferFunction,INT-FLOOR-TOPSIDE,3.401,1.862,,477.00,477.00,477.00,270.00,180.00,9.00,53.00,0.00,MULT_CLASS_2_POD_3_ZN_1_FLR_1_CEILING,Other/Same Surface Int Conv,ASHRAETARP,NoSun,NoWind,1.00,0.00,1.00,0.00,4
HeatTransfer_Surface,MULT_CLASS_2_POD_3_ZN_1_FLR_2_CEILING,Roof,,CTF - ConductionTransferFunction,IEAD NON-RES ROOF,0.376,0.351,,477.00,477.00,477.00,90.00,0.00,9.00,53.00,0.00,ExternalEnvironment,DOE-2,ASHRAETARP,SunExposed,WindExposed,0.00,1.00,0.00,1.00,4
HeatTransfer_Surface,MULT_CLASS_2_POD_3_ZN_1_FLR_2 INTERNAL MASS,Internal Mass,,CTF - ConductionTransferFunction,INTERIORFURNISHINGS,0.800,0.800,,954.00,954.00,954.00,0.00,90.00,954.00,1.00,0.00,MULT_CLASS_2_POD_3_ZN_1_FLR_2 INTERNAL MASS,Other/Same Surface Int Conv,ASHRAETARP,NoSun,NoWind,0.00,0.50,1.00,0.00,0
Zone_Surfaces,OFFICES_ZN_1_FLR_1,    9
HeatTransfer_Surface,OFFICES_ZN_1_FLR_1_WALL_1,Wall,,CTF - ConductionTransferFunction,STEEL FRAME NON-RES EXT WALL,0.514,0.477,,98.80,152.00,98.80,180.00,90.00,38.00,4.00,0.00,ExternalEnvironment,DOE-2,ASHRAETARP,SunExposed,WindExposed,0.50,0.50,0.50,0.50,4
HeatTransfer_Surface,OFFICES_ZN_1_FLR_1_WALL_1_WINDOW_1,Window,OFFICES_ZN_1_FLR_1_WALL_1,Window5 Detailed Fenestration,WINDOW NON-RES FIXED,N/A,3.241,No,53.20,53.20,53.20,180.00,90.00,37.90,1.40,0.00,ExternalEnvironment,DOE-2,ASHRAETARP,SunExposed,WindExposed,0.50,0.50,0.50,0.50,4
HeatTransfer_Surface,OFFICES_ZN_1_FLR_1_WALL_2,Wall,,CTF - ConductionTransferFunction,STEEL FRAME NON-RES EXT WALL,0.514,0.477,,36.40,56.00,36.40,90.00,90.00,14.00,4.00,0.00,ExternalEnvironment,DOE-2,ASHRAETARP,SunExposed,WindExposed,0.50,0.50,0.61,0.39,4
HeatTransfer_Surface,OFFICES_ZN_1_FLR_1_WALL_2_WINDOW_1,Window,OFFICES_ZN_1_FLR_1_WALL_2,Window5 Detailed Fenestration,WINDOW NON-RES FIXED,N/A,3.241,No,19.60,19.60,19.60,90.00,90.00,13.90,1.41,0.00,ExternalEnvironment,DOE-2,ASHRAETARP,SunExposed,WindExposed,0.50,0.50,0.62,0.38,4
HeatTransfer_Surface,OFFICES_ZN_1_FLR_1_WALL_3,Wall,,CTF - ConductionTransferFunction,INT-WALLS,6.299,3.242,,152.00,152.00,152.00,0.00,90.00,38.00,4.00,0.00,GYM_ZN_1_FLR_1_WALL_1,Other/Same Surface Int Conv,ASHRAETARP,NoSun,NoWind,0.50,0.50,0.50,0.50,4
HeatTransfer_Surface,OFFICES_ZN_1_FLR_1_WALL_4,Wall,,CTF - ConductionTransferFunction,INT-WALLS,6.299,3.242,,56.00,56.00,56.00,270.00,90.00,14.00,4.00,0.00,LOBBY_ZN_1_FLR_1_WALL_2,Other/Same Surface Int Conv,ASHRAETARP,NoSun,NoWind,0.50,0.50,0.50,0.50,4
HeatTransfer_Surface,OFFICES_ZN_1_FLR_1_FLOOR,Floor,,CTF - ConductionTransferFunction,EXT-SLAB,3.401,1.862,,532.00,532.00,532.00,270.00,180.00,14.00,38.00,0.00,Ground,N/A-Ground,ASHRAETARP,NoSun,NoWind,1.00,0.00,1.00,0.00,4
HeatTransfer_Surface,OFFICES_ZN_1_FLR_1_CEILING,Roof,,CTF - ConductionTransferFunction,INT-FLOOR-UNDERSIDE,3.401,2.073,,532.00,532.00,532.00,90.00,0.00,14.00,38.00,0.00,OFFICES_ZN_1_FLR_2_FLOOR,Other/Same Surface Int Conv,ASHRAETARP,NoSun,NoWind,0.00,1.00,0.00,1.00,4
HeatTransfer_Surface,OFFICES_ZN_1_FLR_1 INTERNAL MASS,Internal Mass,,CTF - ConductionTransferFunction,INTERIORFURNISHINGS,0.800,0.800,,1064.00,1064.00,1064.00,0.00,90.00,1064.00,1.00,0.00,OFFICES_ZN_1_FLR_1 INTERNAL MASS,Other/Same Surface Int Conv,ASHRAETARP,NoSun,NoWind,0.00,0.50,1.00,0.00,0
Zone_Surfaces,OFFICES_ZN_1_FLR_2,    9
HeatTransfer_Surface,OFFICES_ZN_1_FLR_2_WALL_1,Wall,,CTF - ConductionTransferFunction,STEEL FRAME NON-RES EXT WALL,0.514,0.477,,98.80,152.00,98.80,180.00,90.00,38.00,4.00,0.00,ExternalEnvironment,DOE-2,ASHRAETARP,SunExposed,WindExposed,0.50,0.50,0.50,0.50,4
HeatTransfer_Surface,OFFICES_ZN_1_FLR_2_WALL_1_WINDOW_1,Window,OFFICES_ZN_1_FLR_2_WALL_1,Window5 Detailed Fenestration,WINDOW NON-RES FIXED,N/A,3.241,No,53.20,53.20,53.20,180.00,90.00,37.90,1.40,0.00,ExternalEnvironment,DOE-2,ASHRAETARP,SunExposed,WindExposed,0.50,0.50,0.50,0.50,4
HeatTransfer_Surface,OFFICES_ZN_1_FLR_2_WALL_2,Wall,,CTF - ConductionTransferFunction,STEEL FRAME NON-RES EXT WALL,0.514,0.477,,36.40,56.00,36.40,90.00,90.00,14.00,4.00,0.00,ExternalEnvironment,DOE-2,ASHRAETARP,SunExposed,WindExposed,0.50,0.50,0.55,0.45,4
HeatTransfer_Surface,OFFICES_ZN_1_FLR_2_WALL_2_WINDOW_1,Window,OFFICES_ZN_1_FLR_2_WALL_2,Window5 Detailed Fenestration,WINDOW NON-RES FIXED,N/A,3.241,No,19.60,19.60,19.60,90.00,90.00,13.90,1.41,0.00,ExternalEnvironment,DOE-2,ASHRAETARP,SunExposed,WindExposed,0.50,0.50,0.57,0.43,4
HeatTransfer_Surface,OFFICES_ZN_1_FLR_2_WALL_3,Wall,,CTF - ConductionTransferFunction,INT-WALLS,6.299,3.242,,152.00,152.00,152.00,0.00,90.00,38.00,4.00,0.00,GYM_ZN_1_FLR_2_WALL_1,Other/Same Surface Int Conv,ASHRAETARP,NoSun,NoWind,0.50,0.50,0.50,0.50,4
HeatTransfer_Surface,OFFICES_ZN_1_FLR_2_WALL_4,Wall,,CTF - ConductionTransferFunction,INT-WALLS,6.299,3.242,,56.00,56.00,56.00,270.00,90.00,14.00,4.00,0.00,LOBBY_ZN_1_FLR_2_WALL_2,Other/Same Surface Int Conv,ASHRAETARP,NoSun,NoWind,0.50,0.50,0.50,0.50,4
HeatTransfer_Surface,OFFICES_ZN_1_FLR_2_FLOOR,Floor,,CTF - ConductionTransferFunction,INT-FLOOR-TOPSIDE,3.401,1.862,,532.00,532.00,532.00,270.00,180.00,14.00,38.00,0.00,OFFICES_ZN_1_FLR_1_CEILING,Other/Same Surface Int Conv,ASHRAETARP,NoSun,NoWind,1.00,0.00,1.00,0.00,4
HeatTransfer_Surface,OFFICES_ZN_1_FLR_2_CEILING,Roof,,CTF - ConductionTransferFunction,IEAD NON-RES ROOF,0.376,0.351,,532.00,532.00,532.00,90.00,0.00,14.00,38.00,0.00,ExternalEnvironment,DOE-2,ASHRAETARP,SunExposed,WindExposed,0.00,1.00,0.00,1.00,4
HeatTransfer_Surface,OFFICES_ZN_1_FLR_2 INTERNAL MASS,Internal Mass,,CTF - ConductionTransferFunction,INTERIORFURNISHINGS,0.800,0.800,,1064.00,1064.00,1064.00,0.00,90.00,1064.00,1.00,0.00,OFFICES_ZN_1_FLR_2 INTERNAL MASS,Other/Same Surface Int Conv,ASHRAETARP,NoSun,NoWind,0.00,0.50,1.00,0.00,0
! <Environment>,Environment Name,Environment Type, Start Date, End Date, Start DayOfWeek, Duration {#days}, Source:Start DayOfWeek,  Use Daylight Saving, Use Holidays, Apply Weekend Holiday Rule,  Use Rain Values, Use Snow Values
! <Environment:Special Days>, Special Day Name, Special Day Type, Source, Start Date, Duration {#days}
! <Environment:Daylight Saving>, Daylight Saving Indicator, Source, Start Date, End Date
! <Environment:WarmupDays>, NumberofWarmupDays
Environment,Chicago Ohare Intl Ap IL USA TMY3 WMO#=725300,WeatherFileRunPeriod,06/01,06/01,Monday,1,Use RunPeriod Specified Day,No ,No ,No ,Yes,Yes
Environment:Daylight Saving,Yes,InputFile,03/08,11/01
Environment:Special Days,NEW YEARS DAY,Holiday,InputFile,01/01,  1
Environment:Special Days,VETERANS DAY,Holiday,InputFile,11/11,  1
Environment:Special Days,CHRISTMAS,Holiday,InputFile,12/25,  1
Environment:Special Days,INDEPENDENCE DAY,Holiday,InputFile,07/04,  1
Environment:Special Days,MLK DAY,Holiday,InputFile,01/19,  1
Environment:Special Days,PRESIDENTS DAY,Holiday,InputFile,02/16,  1
Environment:Special Days,MEMORIAL DAY,Holiday,InputFile,05/25,  1
Environment:Special Days,LABOR DAY,Holiday,InputFile,09/07,  1
Environment:Special Days,COLUMBUS DAY,Holiday,InputFile,10/12,  1
Environment:Special Days,THANKSGIVING,Holiday,InputFile,11/26,  1
Environment:WarmupDays,  6
! <Tabular Report>,Style,Unit Conversion
Tabular Report,HTML,None
! <Warmup Convergence Information>,Zone Name,Environment Type/Name,Average Warmup Temperature Difference {deltaC},Std Dev Warmup Temperature Difference {deltaC},Max Temperature Pass/Fail Convergence,Min Temperature Pass/Fail Convergence,Average Warmup Load Difference {W},Std Dev Warmup Load Difference {W},Heating Load Pass/Fail Convergence,Cooling Load Pass/Fail Convergence
 Warmup Convergence Information,AUDITORIUM_ZN_1_FLR_1,RunPeriod: Chicago Ohare Intl Ap IL USA TMY3 WMO#=725300,0.3351499780,0.5593680149,Pass,Pass,0.3045521275,0.6083642750,Pass,Pass
 Warmup Convergence Information,AUX_GYM_ZN_1_FLR_1,RunPeriod: Chicago Ohare Intl Ap IL USA TMY3 WMO#=725300,7.1037768268E-002,0.1382105890,Pass,Pass,3.0347697413E-002,0.1132973002,Pass,Pass
 Warmup Convergence Information,BATHROOMS_ZN_1_FLR_1,RunPeriod: Chicago Ohare Intl Ap IL USA TMY3 WMO#=725300,0.1174824943,0.1856818524,Pass,Pass,4.7093349234E-002,0.2029547209,Pass,Pass
 Warmup Convergence Information,BATHROOMS_ZN_1_FLR_2,RunPeriod: Chicago Ohare Intl Ap IL USA TMY3 WMO#=725300,0.1369343665,0.2115154621,Pass,Pass,4.7393901272E-002,0.2032982383,Pass,Pass
 Warmup Convergence Information,CAFETERIA_ZN_1_FLR_1,RunPeriod: Chicago Ohare Intl Ap IL USA TMY3 WMO#=725300,0.1246219453,0.3261901935,Pass,Pass,6.1112362165E-002,0.2009049004,Pass,Pass
 Warmup Convergence Information,CORNER_CLASS_1_POD_1_ZN_1_FLR_1,RunPeriod: Chicago Ohare Intl Ap IL USA TMY3 WMO#=725300,6.7216712192E-002,0.1903291470,Pass,Pass,3.1918362732E-002,0.1041818150,Pass,Pass
 Warmup Convergence Information,CORNER_CLASS_1_POD_1_ZN_1_FLR_2,RunPeriod: Chicago Ohare Intl Ap IL USA TMY3 WMO#=725300,8.8226070295E-002,0.2552108667,Pass,Pass,3.0143902170E-002,0.1016505485,Pass,Pass
 Warmup Convergence Information,CORNER_CLASS_1_POD_2_ZN_1_FLR_1,RunPeriod: Chicago Ohare Intl Ap IL USA TMY3 WMO#=725300,6.6715679519E-002,0.1878955932,Pass,Pass,3.2003773632E-002,0.1042846310,Pass,Pass
 Warmup Convergence Information,CORNER_CLASS_1_POD_2_ZN_1_FLR_2,RunPeriod: Chicago Ohare Intl Ap IL USA TMY3 WMO#=725300,8.8327887266E-002,0.2515167359,Pass,Pass,3.0164818306E-002,0.1018508647,Pass,Pass
 Warmup Convergence Information,CORNER_CLASS_1_POD_3_ZN_1_FLR_1,RunPeriod: Chicago Ohare Intl Ap IL USA TMY3 WMO#=725300,6.6716257474E-002,0.1879727002,Pass,Pass,3.1994021252E-002,0.1042817047,Pass,Pass
 Warmup Convergence Information,CORNER_CLASS_1_POD_3_ZN_1_FLR_2,RunPeriod: Chicago Ohare Intl Ap IL USA TMY3 WMO#=725300,8.8551500004E-002,0.2525961553,Pass,Pass,3.0126968178E-002,0.1018138940,Pass,Pass
 Warmup Convergence Information,CORNER_CLASS_2_POD_1_ZN_1_FLR_1,RunPeriod: Chicago Ohare Intl Ap IL USA TMY3 WMO#=725300,6.5075747092E-002,0.1811149061,Pass,Pass,3.1729284250E-002,0.1068657572,Pass,Pass
 Warmup Convergence Information,CORNER_CLASS_2_POD_1_ZN_1_FLR_2,RunPeriod: Chicago Ohare Intl Ap IL USA TMY3 WMO#=725300,8.6840181550E-002,0.2481553776,Pass,Pass,2.9843875130E-002,0.1021689064,Pass,Pass
 Warmup Convergence Information,CORNER_CLASS_2_POD_2_ZN_1_FLR_1,RunPeriod: Chicago Ohare Intl Ap IL USA TMY3 WMO#=725300,6.5069022524E-002,0.1803609546,Pass,Pass,3.1881020604E-002,0.1056839582,Pass,Pass
 Warmup Convergence Information,CORNER_CLASS_2_POD_2_ZN_1_FLR_2,RunPeriod: Chicago Ohare Intl Ap IL USA TMY3 WMO#=725300,8.7186059931E-002,0.2456585921,Pass,Pass,2.9897083988E-002,0.1023167017,Pass,Pass
 Warmup Convergence Information,CORNER_CLASS_2_POD_3_ZN_1_FLR_1,RunPeriod: Chicago Ohare Intl Ap IL USA TMY3 WMO#=725300,6.5521089253E-002,0.1819635925,Pass,Pass,3.1909624838E-002,0.1056034318,Pass,Pass
 Warmup Convergence Information,CORNER_CLASS_2_POD_3_ZN_1_FLR_2,RunPeriod: Chicago Ohare Intl Ap IL USA TMY3 WMO#=725300,8.7582617937E-002,0.2476398591,Pass,Pass,2.9866142422E-002,0.1022417580,Pass,Pass
 Warmup Convergence Information,CORRIDOR_POD_1_ZN_1_FLR_1,RunPeriod: Chicago Ohare Intl Ap IL USA TMY3 WMO#=725300,5.5180640439E-002,9.5443336607E-002,Pass,Pass,1.3781304537E-002,0.1035157546,Pass,Pass
 Warmup Convergence Information,CORRIDOR_POD_1_ZN_1_FLR_2,RunPeriod: Chicago Ohare Intl Ap IL USA TMY3 WMO#=725300,7.5369095972E-002,0.1209827098,Pass,Pass,1.3578656213E-002,0.1022108635,Pass,Pass
 Warmup Convergence Information,CORRIDOR_POD_2_ZN_1_FLR_1,RunPeriod: Chicago Ohare Intl Ap IL USA TMY3 WMO#=725300,4.5234628328E-002,7.4717641147E-002,Pass,Pass,1.3430375566E-002,0.1029546315,Pass,Pass
 Warmup Convergence Information,CORRIDOR_POD_2_ZN_1_FLR_2,RunPeriod: Chicago Ohare Intl Ap IL USA TMY3 WMO#=725300,7.4856129892E-002,0.1182802789,Pass,Pass,1.3647403216E-002,0.1023516075,Pass,Pass
 Warmup Convergence Information,CORRIDOR_POD_3_ZN_1_FLR_1,RunPeriod: Chicago Ohare Intl Ap IL USA TMY3 WMO#=725300,4.5651761695E-002,7.5194449663E-002,Pass,Pass,1.3453667410E-002,0.1029574099,Pass,Pass
 Warmup Convergence Information,CORRIDOR_POD_3_ZN_1_FLR_2,RunPeriod: Chicago Ohare Intl Ap IL USA TMY3 WMO#=725300,7.5808683569E-002,0.1202487357,Pass,Pass,1.3691408595E-002,0.1023424710,Pass,Pass
 Warmup Convergence Information,GYM_ZN_1_FLR_1,RunPeriod: Chicago Ohare Intl Ap IL USA TMY3 WMO#=725300,8.5178246930E-002,0.2263650525,Pass,Pass,3.6972303797E-002,0.1095952514,Pass,Pass
 Warmup Convergence Information,KITCHEN_ZN_1_FLR_1,RunPeriod: Chicago Ohare Intl Ap IL USA TMY3 WMO#=725300,0.1193469654,0.1590578530,Pass,Pass,0.1612857059,0.2966760667,Pass,Pass
 Warmup Convergence Information,LIBRARY_MEDIA_CENTER_ZN_1_FLR_2,RunPeriod: Chicago Ohare Intl Ap IL USA TMY3 WMO#=725300,0.1091431159,0.2804269332,Pass,Pass,6.7370307340E-002,0.2210060862,Pass,Pass
 Warmup Convergence Information,LOBBY_ZN_1_FLR_1,RunPeriod: Chicago Ohare Intl Ap IL USA TMY3 WMO#=725300,4.6981340667E-002,0.1111743465,Pass,Pass,6.8744793057E-002,0.2266271745,Pass,Pass
 Warmup Convergence Information,LOBBY_ZN_1_FLR_2,RunPeriod: Chicago Ohare Intl Ap IL USA TMY3 WMO#=725300,0.1206625882,0.2007119747,Pass,Pass,4.6007218344E-002,0.2029182326,Pass,Pass
 Warmup Convergence Information,MAIN_CORRIDOR_ZN_1_FLR_1,RunPeriod: Chicago Ohare Intl Ap IL USA TMY3 WMO#=725300,6.1498071679E-002,8.2340149531E-002,Pass,Pass,4.4779228186E-002,0.2008050595,Pass,Pass
 Warmup Convergence Information,MAIN_CORRIDOR_ZN_1_FLR_2,RunPeriod: Chicago Ohare Intl Ap IL USA TMY3 WMO#=725300,0.1165885696,0.1856904532,Pass,Pass,4.6175121406E-002,0.2029113534,Pass,Pass
 Warmup Convergence Information,MECH_ZN_1_FLR_1,RunPeriod: Chicago Ohare Intl Ap IL USA TMY3 WMO#=725300,0.1656275362,0.3146530528,Pass,Pass,5.4673385565E-002,0.2065129879,Pass,Pass
 Warmup Convergence Information,MECH_ZN_1_FLR_2,RunPeriod: Chicago Ohare Intl Ap IL USA TMY3 WMO#=725300,0.1147725853,0.2196564819,Pass,Pass,4.9548498831E-002,0.2032579081,Pass,Pass
 Warmup Convergence Information,MULT_CLASS_1_POD_1_ZN_1_FLR_1,RunPeriod: Chicago Ohare Intl Ap IL USA TMY3 WMO#=725300,5.1128923687E-002,0.1365731065,Pass,Pass,2.8167446839E-002,0.1191370151,Pass,Pass
 Warmup Convergence Information,MULT_CLASS_1_POD_1_ZN_1_FLR_2,RunPeriod: Chicago Ohare Intl Ap IL USA TMY3 WMO#=725300,6.3705331231E-002,0.2229061283,Pass,Pass,2.8037479273E-002,0.1102695653,Pass,Pass
 Warmup Convergence Information,MULT_CLASS_1_POD_2_ZN_1_FLR_1,RunPeriod: Chicago Ohare Intl Ap IL USA TMY3 WMO#=725300,4.7253811156E-002,0.1273593393,Pass,Pass,2.8863824068E-002,0.1212737868,Pass,Pass
 Warmup Convergence Information,MULT_CLASS_1_POD_2_ZN_1_FLR_2,RunPeriod: Chicago Ohare Intl Ap IL USA TMY3 WMO#=725300,6.3562236866E-002,0.2175480623,Pass,Pass,2.8064094442E-002,0.1106107521,Pass,Pass
 Warmup Convergence Information,MULT_CLASS_1_POD_3_ZN_1_FLR_1,RunPeriod: Chicago Ohare Intl Ap IL USA TMY3 WMO#=725300,4.7325714174E-002,0.1282826093,Pass,Pass,2.8762624487E-002,0.1211754771,Pass,Pass
 Warmup Convergence Information,MULT_CLASS_1_POD_3_ZN_1_FLR_2,RunPeriod: Chicago Ohare Intl Ap IL USA TMY3 WMO#=725300,7.0280977691E-002,0.2407158461,Pass,Pass,2.4159380621E-002,0.1058031562,Pass,Pass
 Warmup Convergence Information,MULT_CLASS_2_POD_1_ZN_1_FLR_1,RunPeriod: Chicago Ohare Intl Ap IL USA TMY3 WMO#=725300,4.3016085813E-002,0.1289761236,Pass,Pass,2.8386288079E-002,0.1235915466,Pass,Pass
 Warmup Convergence Information,MULT_CLASS_2_POD_1_ZN_1_FLR_2,RunPeriod: Chicago Ohare Intl Ap IL USA TMY3 WMO#=725300,6.1035271867E-002,0.2077852236,Pass,Pass,2.7024663020E-002,0.1126136580,Pass,Pass
 Warmup Convergence Information,MULT_CLASS_2_POD_2_ZN_1_FLR_1,RunPeriod: Chicago Ohare Intl Ap IL USA TMY3 WMO#=725300,4.3023789021E-002,0.1246368055,Pass,Pass,2.8738765947E-002,0.1243217321,Pass,Pass
 Warmup Convergence Information,MULT_CLASS_2_POD_2_ZN_1_FLR_2,RunPeriod: Chicago Ohare Intl Ap IL USA TMY3 WMO#=725300,6.1475121409E-002,0.2074030584,Pass,Pass,2.7116975043E-002,0.1124102938,Pass,Pass
 Warmup Convergence Information,MULT_CLASS_2_POD_3_ZN_1_FLR_1,RunPeriod: Chicago Ohare Intl Ap IL USA TMY3 WMO#=725300,4.3966261355E-002,0.1263322469,Pass,Pass,2.8764280659E-002,0.1234219298,Pass,Pass
 Warmup Convergence Information,MULT_CLASS_2_POD_3_ZN_1_FLR_2,RunPeriod: Chicago Ohare Intl Ap IL USA TMY3 WMO#=725300,6.9025881407E-002,0.2346021871,Pass,Pass,2.3473118163E-002,0.1066841065,Pass,Pass
 Warmup Convergence Information,OFFICES_ZN_1_FLR_1,RunPeriod: Chicago Ohare Intl Ap IL USA TMY3 WMO#=725300,7.0192302358E-002,0.1535773657,Pass,Pass,6.5586155716E-002,0.2118353696,Pass,Pass
 Warmup Convergence Information,OFFICES_ZN_1_FLR_2,RunPeriod: Chicago Ohare Intl Ap IL USA TMY3 WMO#=725300,0.1093537187,0.2571452194,Pass,Pass,6.3965369490E-002,0.2075032085,Pass,Pass
! <Program Control Information:Threads/Parallel Sims>, Threading Supported,Maximum Number of Threads, Env Set Threads (OMP_NUM_THREADS), EP Env Set Threads (EP_OMP_NUM_THREADS), IDF Set Threads, Number of Threads Used (Interior Radiant Exchange), Number Nominal Surfaces, Number Parallel Sims
Program Control:Threads/Parallel Sims, No,1, N/A, N/A, N/A, N/A, N/A, N/A
End of Data
