Program Version,EnergyPlus-Windows-64 8.0.0.008, YMD=2013.06.10 17:07
! This file shows details about the branches, nodes, and other
! elements of the flow connections.
! This file is intended for use in "debugging" potential problems
! that may also be detected by the program, but may be more easily
! identified by "eye".
! This file is also intended to support software which draws a
! schematic diagram of the HVAC system.
! ===============================================================
! #Nodes,<Number of Unique Nodes>
 #Nodes,466                 
! <Node>,<NodeNumber>,<Node Name>,<Node Fluid Type>,<# Times Node Referenced After Definition>
 Node,1,AUDITORIUM_ZN_1_FLR_1 DIRECT AIR INLET NODE NAME,Air,4
 Node,2,AUX_GYM_ZN_1_FLR_1 DIRECT AIR INLET NODE NAME,Air,4
 Node,3,BATHROOMS_ZN_1_FLR_1 EXHAUST FAN NODE,Air,2
 Node,4,BATHROOMS_ZN_1_FLR_1 VAV BOX OUTLET NODE NAME,Air,4
 Node,5,BATHROOMS_ZN_1_FLR_2 EXHAUST FAN NODE,Air,2
 Node,6,BATHROOMS_ZN_1_FLR_2 VAV BOX OUTLET NODE NAME,Air,4
 Node,7,CAFETERIA_ZN_1_FLR_1 EXHAUST FAN NODE,Air,2
 Node,8,CAFETERIA_ZN_1_FLR_1 DIRECT AIR INLET NODE NAME,Air,4
 Node,9,CORNER_CLASS_1_POD_1_ZN_1_FLR_1 VAV BOX OUTLET NODE NAME,Air,4
 Node,10,CORNER_CLASS_1_POD_1_ZN_1_FLR_2 VAV BOX OUTLET NODE NAME,Air,4
 Node,11,CORNER_CLASS_1_POD_2_ZN_1_FLR_1 VAV BOX OUTLET NODE NAME,Air,4
 Node,12,CORNER_CLASS_1_POD_2_ZN_1_FLR_2 VAV BOX OUTLET NODE NAME,Air,4
 Node,13,CORNER_CLASS_1_POD_3_ZN_1_FLR_1 VAV BOX OUTLET NODE NAME,Air,4
 Node,14,CORNER_CLASS_1_POD_3_ZN_1_FLR_2 VAV BOX OUTLET NODE NAME,Air,4
 Node,15,CORNER_CLASS_2_POD_1_ZN_1_FLR_1 VAV BOX OUTLET NODE NAME,Air,4
 Node,16,CORNER_CLASS_2_POD_1_ZN_1_FLR_2 VAV BOX OUTLET NODE NAME,Air,4
 Node,17,CORNER_CLASS_2_POD_2_ZN_1_FLR_1 VAV BOX OUTLET NODE NAME,Air,4
 Node,18,CORNER_CLASS_2_POD_2_ZN_1_FLR_2 VAV BOX OUTLET NODE NAME,Air,4
 Node,19,CORNER_CLASS_2_POD_3_ZN_1_FLR_1 VAV BOX OUTLET NODE NAME,Air,4
 Node,20,CORNER_CLASS_2_POD_3_ZN_1_FLR_2 VAV BOX OUTLET NODE NAME,Air,4
 Node,21,CORRIDOR_POD_1_ZN_1_FLR_1 VAV BOX OUTLET NODE NAME,Air,4
 Node,22,CORRIDOR_POD_1_ZN_1_FLR_2 VAV BOX OUTLET NODE NAME,Air,4
 Node,23,CORRIDOR_POD_2_ZN_1_FLR_1 VAV BOX OUTLET NODE NAME,Air,4
 Node,24,CORRIDOR_POD_2_ZN_1_FLR_2 VAV BOX OUTLET NODE NAME,Air,4
 Node,25,CORRIDOR_POD_3_ZN_1_FLR_1 VAV BOX OUTLET NODE NAME,Air,4
 Node,26,CORRIDOR_POD_3_ZN_1_FLR_2 VAV BOX OUTLET NODE NAME,Air,4
 Node,27,GYM_ZN_1_FLR_1 DIRECT AIR INLET NODE NAME,Air,4
 Node,28,KITCHEN_ZN_1_FLR_1 EXHAUST FAN NODE,Air,2
 Node,29,KITCHEN_ZN_1_FLR_1 DIRECT AIR INLET NODE NAME,Air,4
 Node,30,LIBRARY_MEDIA_CENTER_ZN_1_FLR_2 VAV BOX OUTLET NODE NAME,Air,4
 Node,31,LOBBY_ZN_1_FLR_1 VAV BOX OUTLET NODE NAME,Air,4
 Node,32,LOBBY_ZN_1_FLR_2 VAV BOX OUTLET NODE NAME,Air,4
 Node,33,MAIN_CORRIDOR_ZN_1_FLR_1 VAV BOX OUTLET NODE NAME,Air,4
 Node,34,MAIN_CORRIDOR_ZN_1_FLR_2 VAV BOX OUTLET NODE NAME,Air,4
 Node,35,MECH_ZN_1_FLR_1 VAV BOX OUTLET NODE NAME,Air,4
 Node,36,MECH_ZN_1_FLR_2 VAV BOX OUTLET NODE NAME,Air,4
 Node,37,MULT_CLASS_1_POD_1_ZN_1_FLR_1 VAV BOX OUTLET NODE NAME,Air,4
 Node,38,MULT_CLASS_1_POD_1_ZN_1_FLR_2 VAV BOX OUTLET NODE NAME,Air,4
 Node,39,MULT_CLASS_1_POD_2_ZN_1_FLR_1 VAV BOX OUTLET NODE NAME,Air,4
 Node,40,MULT_CLASS_1_POD_2_ZN_1_FLR_2 VAV BOX OUTLET NODE NAME,Air,4
 Node,41,MULT_CLASS_1_POD_3_ZN_1_FLR_1 VAV BOX OUTLET NODE NAME,Air,4
 Node,42,MULT_CLASS_1_POD_3_ZN_1_FLR_2 VAV BOX OUTLET NODE NAME,Air,4
 Node,43,MULT_CLASS_2_POD_1_ZN_1_FLR_1 VAV BOX OUTLET NODE NAME,Air,4
 Node,44,MULT_CLASS_2_POD_1_ZN_1_FLR_2 VAV BOX OUTLET NODE NAME,Air,4
 Node,45,MULT_CLASS_2_POD_2_ZN_1_FLR_1 VAV BOX OUTLET NODE NAME,Air,4
 Node,46,MULT_CLASS_2_POD_2_ZN_1_FLR_2 VAV BOX OUTLET NODE NAME,Air,4
 Node,47,MULT_CLASS_2_POD_3_ZN_1_FLR_1 VAV BOX OUTLET NODE NAME,Air,4
 Node,48,MULT_CLASS_2_POD_3_ZN_1_FLR_2 VAV BOX OUTLET NODE NAME,Air,4
 Node,49,OFFICES_ZN_1_FLR_1 VAV BOX OUTLET NODE NAME,Air,4
 Node,50,OFFICES_ZN_1_FLR_2 VAV BOX OUTLET NODE NAME,Air,4
 Node,51,PSZ-AC_1:5_OAINLET NODE,Air,3
 Node,52,PSZ-AC_2:6_OAINLET NODE,Air,3
 Node,53,PSZ-AC_3:7_OAINLET NODE,Air,3
 Node,54,PSZ-AC_4:8_OAINLET NODE,Air,3
 Node,55,PSZ-AC_5:9_OAINLET NODE,Air,3
 Node,56,VAV_OTHER_OAINLET NODE,Air,3
 Node,57,VAV_POD_1_OAINLET NODE,Air,3
 Node,58,VAV_POD_2_OAINLET NODE,Air,3
 Node,59,VAV_POD_3_OAINLET NODE,Air,3
 Node,60,PSZ-AC_1:5 SUPPLY EQUIPMENT INLET NODE,Air,3
 Node,61,PSZ-AC_1:5_OA-PSZ-AC_1:5_COOLCNODE,Air,6
 Node,62,PSZ-AC_1:5_COOLC-PSZ-AC_1:5_HEATCNODE,Air,6
 Node,63,PSZ-AC_1:5_HEATC-PSZ-AC_1:5_FANNODE,Air,8
 Node,64,PSZ-AC_1:5 SUPPLY EQUIPMENT OUTLET NODE,Air,9
 Node,65,PSZ-AC_2:6 SUPPLY EQUIPMENT INLET NODE,Air,3
 Node,66,PSZ-AC_2:6_OA-PSZ-AC_2:6_COOLCNODE,Air,6
 Node,67,PSZ-AC_2:6_COOLC-PSZ-AC_2:6_HEATCNODE,Air,6
 Node,68,PSZ-AC_2:6_HEATC-PSZ-AC_2:6_FANNODE,Air,8
 Node,69,PSZ-AC_2:6 SUPPLY EQUIPMENT OUTLET NODE,Air,9
 Node,70,PSZ-AC_3:7 SUPPLY EQUIPMENT INLET NODE,Air,3
 Node,71,PSZ-AC_3:7_OA-PSZ-AC_3:7_COOLCNODE,Air,6
 Node,72,PSZ-AC_3:7_COOLC-PSZ-AC_3:7_HEATCNODE,Air,6
 Node,73,PSZ-AC_3:7_HEATC-PSZ-AC_3:7_FANNODE,Air,8
 Node,74,PSZ-AC_3:7 SUPPLY EQUIPMENT OUTLET NODE,Air,9
 Node,75,PSZ-AC_4:8 SUPPLY EQUIPMENT INLET NODE,Air,3
 Node,76,PSZ-AC_4:8_OA-PSZ-AC_4:8_COOLCNODE,Air,6
 Node,77,PSZ-AC_4:8_COOLC-PSZ-AC_4:8_HEATCNODE,Air,6
 Node,78,PSZ-AC_4:8_HEATC-PSZ-AC_4:8_FANNODE,Air,8
 Node,79,PSZ-AC_4:8 SUPPLY EQUIPMENT OUTLET NODE,Air,9
 Node,80,PSZ-AC_5:9 SUPPLY EQUIPMENT INLET NODE,Air,3
 Node,81,PSZ-AC_5:9_OA-PSZ-AC_5:9_COOLCNODE,Air,6
 Node,82,PSZ-AC_5:9_COOLC-PSZ-AC_5:9_HEATCNODE,Air,6
 Node,83,PSZ-AC_5:9_HEATC-PSZ-AC_5:9_FANNODE,Air,8
 Node,84,PSZ-AC_5:9 SUPPLY EQUIPMENT OUTLET NODE,Air,9
 Node,85,VAV_OTHER SUPPLY EQUIPMENT INLET NODE,Air,3
 Node,86,VAV_OTHER_OA-VAV_OTHER_COOLCNODE,Air,5
 Node,87,VAV_OTHER_COOLC-VAV_OTHER_HEATCNODE,Air,5
 Node,88,VAV_OTHER_HEATC-VAV_OTHER_FANNODE,Air,8
 Node,89,VAV_OTHER SUPPLY EQUIPMENT OUTLET NODE,Air,9
 Node,90,VAV_POD_1 SUPPLY EQUIPMENT INLET NODE,Air,3
 Node,91,VAV_POD_1_OA-VAV_POD_1_COOLCNODE,Air,5
 Node,92,VAV_POD_1_COOLC-VAV_POD_1_HEATCNODE,Air,5
 Node,93,VAV_POD_1_HEATC-VAV_POD_1_FANNODE,Air,8
 Node,94,VAV_POD_1 SUPPLY EQUIPMENT OUTLET NODE,Air,9
 Node,95,VAV_POD_2 SUPPLY EQUIPMENT INLET NODE,Air,3
 Node,96,VAV_POD_2_OA-VAV_POD_2_COOLCNODE,Air,5
 Node,97,VAV_POD_2_COOLC-VAV_POD_2_HEATCNODE,Air,5
 Node,98,VAV_POD_2_HEATC-VAV_POD_2_FANNODE,Air,8
 Node,99,VAV_POD_2 SUPPLY EQUIPMENT OUTLET NODE,Air,9
 Node,100,VAV_POD_3 SUPPLY EQUIPMENT INLET NODE,Air,3
 Node,101,VAV_POD_3_OA-VAV_POD_3_COOLCNODE,Air,5
 Node,102,VAV_POD_3_COOLC-VAV_POD_3_HEATCNODE,Air,5
 Node,103,VAV_POD_3_HEATC-VAV_POD_3_FANNODE,Air,8
 Node,104,VAV_POD_3 SUPPLY EQUIPMENT OUTLET NODE,Air,9
 Node,105,COOLSYS1 DEMAND BYPASS PIPE INLET NODE,Water,1
 Node,106,COOLSYS1 DEMAND BYPASS PIPE OUTLET NODE,Water,1
 Node,107,COOLSYS1 DEMAND INLET NODE,Water,2
 Node,108,COOLSYS1 DEMAND INLET PIPE-COOLSYS1 DEMAND MIXER,Water,1
 Node,109,VAV_POD_1_COOLCDEMAND INLET NODE,Water,2
 Node,110,VAV_POD_1_COOLCDEMAND OUTLET NODE,Water,1
 Node,111,VAV_POD_2_COOLCDEMAND INLET NODE,Water,2
 Node,112,VAV_POD_2_COOLCDEMAND OUTLET NODE,Water,1
 Node,113,VAV_POD_3_COOLCDEMAND INLET NODE,Water,2
 Node,114,VAV_POD_3_COOLCDEMAND OUTLET NODE,Water,1
 Node,115,VAV_OTHER_COOLCDEMAND INLET NODE,Water,2
 Node,116,VAV_OTHER_COOLCDEMAND OUTLET NODE,Water,1
 Node,117,COOLSYS1 DEMAND MIXER-COOLSYS1 DEMAND OUTLET PIPE,Water,1
 Node,118,COOLSYS1 DEMAND OUTLET NODE,Water,2
 Node,119,COOLSYS1 PUMP-COOLSYS1 CHILLERNODE,Water,1
 Node,120,COOLSYS1 SUPPLY EQUIPMENT OUTLET NODE,Water,2
 Node,121,COOLSYS1 SUPPLY EQUIP BYPASS INLET NODE,Water,1
 Node,122,COOLSYS1 SUPPLY EQUIP BYPASS OUTLET NODE,Water,1
 Node,123,COOLSYS1 SUPPLY INLET NODE,Water,2
 Node,124,COOLSYS1 PUMP-COOLSYS1 CHILLERNODEVIACONNECTOR,Water,1
 Node,125,COOLSYS1 SUPPLY MIXER-COOLSYS1 SUPPLY OUTLET PIPE,Water,1
 Node,126,COOLSYS1 SUPPLY OUTLET NODE,Water,4
 Node,127,HEATSYS1 DEMAND BYPASS PIPE INLET NODE,Water,1
 Node,128,HEATSYS1 DEMAND BYPASS PIPE OUTLET NODE,Water,1
 Node,129,HEATSYS1 DEMAND INLET NODE,Water,2
 Node,130,HEATSYS1 DEMAND INLET PIPE-HEATSYS1 DEMAND MIXER,Water,1
 Node,131,CORNER_CLASS_1_POD_1_ZN_1_FLR_1 VAV BOX REHEAT COILDEMAND INLET NODE,Water,1
 Node,132,CORNER_CLASS_1_POD_1_ZN_1_FLR_1 VAV BOX REHEAT COILDEMAND OUTLET NODE,Water,1
 Node,133,MULT_CLASS_2_POD_1_ZN_1_FLR_2 VAV BOX REHEAT COILDEMAND INLET NODE,Water,1
 Node,134,MULT_CLASS_2_POD_1_ZN_1_FLR_2 VAV BOX REHEAT COILDEMAND OUTLET NODE,Water,1
 Node,135,CORNER_CLASS_1_POD_2_ZN_1_FLR_1 VAV BOX REHEAT COILDEMAND INLET NODE,Water,1
 Node,136,CORNER_CLASS_1_POD_2_ZN_1_FLR_1 VAV BOX REHEAT COILDEMAND OUTLET NODE,Water,1
 Node,137,CORNER_CLASS_1_POD_2_ZN_1_FLR_2 VAV BOX REHEAT COILDEMAND INLET NODE,Water,1
 Node,138,CORNER_CLASS_1_POD_2_ZN_1_FLR_2 VAV BOX REHEAT COILDEMAND OUTLET NODE,Water,1
 Node,139,MULT_CLASS_1_POD_2_ZN_1_FLR_1 VAV BOX REHEAT COILDEMAND INLET NODE,Water,1
 Node,140,MULT_CLASS_1_POD_2_ZN_1_FLR_1 VAV BOX REHEAT COILDEMAND OUTLET NODE,Water,1
 Node,141,MULT_CLASS_1_POD_2_ZN_1_FLR_2 VAV BOX REHEAT COILDEMAND INLET NODE,Water,1
 Node,142,MULT_CLASS_1_POD_2_ZN_1_FLR_2 VAV BOX REHEAT COILDEMAND OUTLET NODE,Water,1
 Node,143,CORRIDOR_POD_2_ZN_1_FLR_1 VAV BOX REHEAT COILDEMAND INLET NODE,Water,1
 Node,144,CORRIDOR_POD_2_ZN_1_FLR_1 VAV BOX REHEAT COILDEMAND OUTLET NODE,Water,1
 Node,145,CORRIDOR_POD_2_ZN_1_FLR_2 VAV BOX REHEAT COILDEMAND INLET NODE,Water,1
 Node,146,CORRIDOR_POD_2_ZN_1_FLR_2 VAV BOX REHEAT COILDEMAND OUTLET NODE,Water,1
 Node,147,CORNER_CLASS_2_POD_2_ZN_1_FLR_1 VAV BOX REHEAT COILDEMAND INLET NODE,Water,1
 Node,148,CORNER_CLASS_2_POD_2_ZN_1_FLR_1 VAV BOX REHEAT COILDEMAND OUTLET NODE,Water,1
 Node,149,CORNER_CLASS_2_POD_2_ZN_1_FLR_2 VAV BOX REHEAT COILDEMAND INLET NODE,Water,1
 Node,150,CORNER_CLASS_2_POD_2_ZN_1_FLR_2 VAV BOX REHEAT COILDEMAND OUTLET NODE,Water,1
 Node,151,MULT_CLASS_2_POD_2_ZN_1_FLR_1 VAV BOX REHEAT COILDEMAND INLET NODE,Water,1
 Node,152,MULT_CLASS_2_POD_2_ZN_1_FLR_1 VAV BOX REHEAT COILDEMAND OUTLET NODE,Water,1
 Node,153,CORNER_CLASS_1_POD_1_ZN_1_FLR_2 VAV BOX REHEAT COILDEMAND INLET NODE,Water,1
 Node,154,CORNER_CLASS_1_POD_1_ZN_1_FLR_2 VAV BOX REHEAT COILDEMAND OUTLET NODE,Water,1
 Node,155,MULT_CLASS_2_POD_2_ZN_1_FLR_2 VAV BOX REHEAT COILDEMAND INLET NODE,Water,1
 Node,156,MULT_CLASS_2_POD_2_ZN_1_FLR_2 VAV BOX REHEAT COILDEMAND OUTLET NODE,Water,1
 Node,157,CORNER_CLASS_1_POD_3_ZN_1_FLR_1 VAV BOX REHEAT COILDEMAND INLET NODE,Water,1
 Node,158,CORNER_CLASS_1_POD_3_ZN_1_FLR_1 VAV BOX REHEAT COILDEMAND OUTLET NODE,Water,1
 Node,159,CORNER_CLASS_1_POD_3_ZN_1_FLR_2 VAV BOX REHEAT COILDEMAND INLET NODE,Water,1
 Node,160,CORNER_CLASS_1_POD_3_ZN_1_FLR_2 VAV BOX REHEAT COILDEMAND OUTLET NODE,Water,1
 Node,161,MULT_CLASS_1_POD_3_ZN_1_FLR_1 VAV BOX REHEAT COILDEMAND INLET NODE,Water,1
 Node,162,MULT_CLASS_1_POD_3_ZN_1_FLR_1 VAV BOX REHEAT COILDEMAND OUTLET NODE,Water,1
 Node,163,MULT_CLASS_1_POD_3_ZN_1_FLR_2 VAV BOX REHEAT COILDEMAND INLET NODE,Water,1
 Node,164,MULT_CLASS_1_POD_3_ZN_1_FLR_2 VAV BOX REHEAT COILDEMAND OUTLET NODE,Water,1
 Node,165,CORRIDOR_POD_3_ZN_1_FLR_1 VAV BOX REHEAT COILDEMAND INLET NODE,Water,1
 Node,166,CORRIDOR_POD_3_ZN_1_FLR_1 VAV BOX REHEAT COILDEMAND OUTLET NODE,Water,1
 Node,167,CORRIDOR_POD_3_ZN_1_FLR_2 VAV BOX REHEAT COILDEMAND INLET NODE,Water,1
 Node,168,CORRIDOR_POD_3_ZN_1_FLR_2 VAV BOX REHEAT COILDEMAND OUTLET NODE,Water,1
 Node,169,CORNER_CLASS_2_POD_3_ZN_1_FLR_1 VAV BOX REHEAT COILDEMAND INLET NODE,Water,1
 Node,170,CORNER_CLASS_2_POD_3_ZN_1_FLR_1 VAV BOX REHEAT COILDEMAND OUTLET NODE,Water,1
 Node,171,CORNER_CLASS_2_POD_3_ZN_1_FLR_2 VAV BOX REHEAT COILDEMAND INLET NODE,Water,1
 Node,172,CORNER_CLASS_2_POD_3_ZN_1_FLR_2 VAV BOX REHEAT COILDEMAND OUTLET NODE,Water,1
 Node,173,MULT_CLASS_2_POD_3_ZN_1_FLR_1 VAV BOX REHEAT COILDEMAND INLET NODE,Water,1
 Node,174,MULT_CLASS_2_POD_3_ZN_1_FLR_1 VAV BOX REHEAT COILDEMAND OUTLET NODE,Water,1
 Node,175,MULT_CLASS_1_POD_1_ZN_1_FLR_1 VAV BOX REHEAT COILDEMAND INLET NODE,Water,1
 Node,176,MULT_CLASS_1_POD_1_ZN_1_FLR_1 VAV BOX REHEAT COILDEMAND OUTLET NODE,Water,1
 Node,177,MULT_CLASS_2_POD_3_ZN_1_FLR_2 VAV BOX REHEAT COILDEMAND INLET NODE,Water,1
 Node,178,MULT_CLASS_2_POD_3_ZN_1_FLR_2 VAV BOX REHEAT COILDEMAND OUTLET NODE,Water,1
 Node,179,MAIN_CORRIDOR_ZN_1_FLR_1 VAV BOX REHEAT COILDEMAND INLET NODE,Water,1
 Node,180,MAIN_CORRIDOR_ZN_1_FLR_1 VAV BOX REHEAT COILDEMAND OUTLET NODE,Water,1
 Node,181,MAIN_CORRIDOR_ZN_1_FLR_2 VAV BOX REHEAT COILDEMAND INLET NODE,Water,1
 Node,182,MAIN_CORRIDOR_ZN_1_FLR_2 VAV BOX REHEAT COILDEMAND OUTLET NODE,Water,1
 Node,183,LOBBY_ZN_1_FLR_1 VAV BOX REHEAT COILDEMAND INLET NODE,Water,1
 Node,184,LOBBY_ZN_1_FLR_1 VAV BOX REHEAT COILDEMAND OUTLET NODE,Water,1
 Node,185,LOBBY_ZN_1_FLR_2 VAV BOX REHEAT COILDEMAND INLET NODE,Water,1
 Node,186,LOBBY_ZN_1_FLR_2 VAV BOX REHEAT COILDEMAND OUTLET NODE,Water,1
 Node,187,BATHROOMS_ZN_1_FLR_1 VAV BOX REHEAT COILDEMAND INLET NODE,Water,1
 Node,188,BATHROOMS_ZN_1_FLR_1 VAV BOX REHEAT COILDEMAND OUTLET NODE,Water,1
 Node,189,BATHROOMS_ZN_1_FLR_2 VAV BOX REHEAT COILDEMAND INLET NODE,Water,1
 Node,190,BATHROOMS_ZN_1_FLR_2 VAV BOX REHEAT COILDEMAND OUTLET NODE,Water,1
 Node,191,OFFICES_ZN_1_FLR_1 VAV BOX REHEAT COILDEMAND INLET NODE,Water,1
 Node,192,OFFICES_ZN_1_FLR_1 VAV BOX REHEAT COILDEMAND OUTLET NODE,Water,1
 Node,193,OFFICES_ZN_1_FLR_2 VAV BOX REHEAT COILDEMAND INLET NODE,Water,1
 Node,194,OFFICES_ZN_1_FLR_2 VAV BOX REHEAT COILDEMAND OUTLET NODE,Water,1
 Node,195,LIBRARY_MEDIA_CENTER_ZN_1_FLR_2 VAV BOX REHEAT COILDEMAND INLET NODE,Water,1
 Node,196,LIBRARY_MEDIA_CENTER_ZN_1_FLR_2 VAV BOX REHEAT COILDEMAND OUTLET NODE,Water,1
 Node,197,MULT_CLASS_1_POD_1_ZN_1_FLR_2 VAV BOX REHEAT COILDEMAND INLET NODE,Water,1
 Node,198,MULT_CLASS_1_POD_1_ZN_1_FLR_2 VAV BOX REHEAT COILDEMAND OUTLET NODE,Water,1
 Node,199,MECH_ZN_1_FLR_1 VAV BOX REHEAT COILDEMAND INLET NODE,Water,1
 Node,200,MECH_ZN_1_FLR_1 VAV BOX REHEAT COILDEMAND OUTLET NODE,Water,1
 Node,201,MECH_ZN_1_FLR_2 VAV BOX REHEAT COILDEMAND INLET NODE,Water,1
 Node,202,MECH_ZN_1_FLR_2 VAV BOX REHEAT COILDEMAND OUTLET NODE,Water,1
 Node,203,VAV_POD_1_HEATCDEMAND INLET NODE,Water,2
 Node,204,VAV_POD_1_HEATCDEMAND OUTLET NODE,Water,1
 Node,205,VAV_POD_2_HEATCDEMAND INLET NODE,Water,2
 Node,206,VAV_POD_2_HEATCDEMAND OUTLET NODE,Water,1
 Node,207,VAV_POD_3_HEATCDEMAND INLET NODE,Water,2
 Node,208,VAV_POD_3_HEATCDEMAND OUTLET NODE,Water,1
 Node,209,VAV_OTHER_HEATCDEMAND INLET NODE,Water,2
 Node,210,VAV_OTHER_HEATCDEMAND OUTLET NODE,Water,1
 Node,211,CORRIDOR_POD_1_ZN_1_FLR_1 VAV BOX REHEAT COILDEMAND INLET NODE,Water,1
 Node,212,CORRIDOR_POD_1_ZN_1_FLR_1 VAV BOX REHEAT COILDEMAND OUTLET NODE,Water,1
 Node,213,CORRIDOR_POD_1_ZN_1_FLR_2 VAV BOX REHEAT COILDEMAND INLET NODE,Water,1
 Node,214,CORRIDOR_POD_1_ZN_1_FLR_2 VAV BOX REHEAT COILDEMAND OUTLET NODE,Water,1
 Node,215,CORNER_CLASS_2_POD_1_ZN_1_FLR_1 VAV BOX REHEAT COILDEMAND INLET NODE,Water,1
 Node,216,CORNER_CLASS_2_POD_1_ZN_1_FLR_1 VAV BOX REHEAT COILDEMAND OUTLET NODE,Water,1
 Node,217,CORNER_CLASS_2_POD_1_ZN_1_FLR_2 VAV BOX REHEAT COILDEMAND INLET NODE,Water,1
 Node,218,CORNER_CLASS_2_POD_1_ZN_1_FLR_2 VAV BOX REHEAT COILDEMAND OUTLET NODE,Water,1
 Node,219,MULT_CLASS_2_POD_1_ZN_1_FLR_1 VAV BOX REHEAT COILDEMAND INLET NODE,Water,1
 Node,220,MULT_CLASS_2_POD_1_ZN_1_FLR_1 VAV BOX REHEAT COILDEMAND OUTLET NODE,Water,1
 Node,221,HEATSYS1 DEMAND MIXER-HEATSYS1 DEMAND OUTLET PIPE,Water,1
 Node,222,HEATSYS1 DEMAND OUTLET NODE,Water,2
 Node,223,HEATSYS1 PUMP-HEATSYS1 BOILERNODE,Water,1
 Node,224,HEATSYS1 SUPPLY EQUIPMENT OUTLET NODE,Water,2
 Node,225,HEATSYS1 SUPPLY EQUIP BYPASS INLET NODE,Water,1
 Node,226,HEATSYS1 SUPPLY EQUIP BYPASS OUTLET NODE,Water,1
 Node,227,HEATSYS1 SUPPLY INLET NODE,Water,2
 Node,228,HEATSYS1 PUMP-HEATSYS1 BOILERNODEVIACONNECTOR,Water,1
 Node,229,HEATSYS1 SUPPLY MIXER-HEATSYS1 SUPPLY OUTLET PIPE,Water,1
 Node,230,HEATSYS1 SUPPLY OUTLET NODE,Water,4
 Node,231,SWHSYS1 DEMAND BYPASS PIPE INLET NODE,Water,1
 Node,232,SWHSYS1 DEMAND BYPASS PIPE OUTLET NODE,Water,1
 Node,233,SWHSYS1 DEMAND INLET NODE,Water,2
 Node,234,SWHSYS1 DEMAND INLET PIPE-SWHSYS1 DEMAND MIXER,Water,1
 Node,235,BATHROOMS_ZN_1_FLR_1 SHW_DEFAULT WATER INLET NODE,Water,1
 Node,236,BATHROOMS_ZN_1_FLR_1 SHW_DEFAULT WATER OUTLET NODE,Water,1
 Node,237,BATHROOMS_ZN_1_FLR_2 SHW_DEFAULT WATER INLET NODE,Water,1
 Node,238,BATHROOMS_ZN_1_FLR_2 SHW_DEFAULT WATER OUTLET NODE,Water,1
 Node,239,GYM_ZN_1_FLR_1 SHW_DEFAULT WATER INLET NODE,Water,1
 Node,240,GYM_ZN_1_FLR_1 SHW_DEFAULT WATER OUTLET NODE,Water,1
 Node,241,KITCHEN_ZN_1_FLR_1 SHW_DEFAULT WATER INLET NODE,Water,1
 Node,242,KITCHEN_ZN_1_FLR_1 SHW_DEFAULT WATER OUTLET NODE,Water,1
 Node,243,SWHSYS1 DEMAND MIXER-SWHSYS1 DEMAND OUTLET PIPE,Water,1
 Node,244,SWHSYS1 DEMAND OUTLET NODE,Water,2
 Node,245,SWHSYS1 PUMP-SWHSYS1 WATER HEATERNODE,Water,1
 Node,246,SWHSYS1 SUPPLY EQUIPMENT OUTLET NODE,Water,1
 Node,247,SWHSYS1 SUPPLY EQUIP BYPASS INLET NODE,Water,1
 Node,248,SWHSYS1 SUPPLY EQUIP BYPASS OUTLET NODE,Water,1
 Node,249,SWHSYS1 SUPPLY INLET NODE,Water,2
 Node,250,SWHSYS1 PUMP-SWHSYS1 WATER HEATERNODEVIACONNECTOR,Water,1
 Node,251,SWHSYS1 SUPPLY MIXER-SWHSYS1 SUPPLY OUTLET PIPE,Water,1
 Node,252,SWHSYS1 SUPPLY OUTLET NODE,Water,4
 Node,253,AUDITORIUM_ZN_1_FLR_1 AIR NODE,Air,1
 Node,254,AUDITORIUM_ZN_1_FLR_1 RETURN AIR NODE NAME,Air,1
 Node,255,AUX_GYM_ZN_1_FLR_1 AIR NODE,Air,1
 Node,256,AUX_GYM_ZN_1_FLR_1 RETURN AIR NODE NAME,Air,1
 Node,257,BATHROOMS_ZN_1_FLR_1 AIR NODE,Air,0
 Node,258,BATHROOMS_ZN_1_FLR_1 RETURN AIR NODE NAME,Air,1
 Node,259,BATHROOMS_ZN_1_FLR_2 AIR NODE,Air,0
 Node,260,BATHROOMS_ZN_1_FLR_2 RETURN AIR NODE NAME,Air,1
 Node,261,CAFETERIA_ZN_1_FLR_1 AIR NODE,Air,1
 Node,262,CAFETERIA_ZN_1_FLR_1 RETURN AIR NODE NAME,Air,1
 Node,263,CORNER_CLASS_1_POD_1_ZN_1_FLR_1 AIR NODE,Air,0
 Node,264,CORNER_CLASS_1_POD_1_ZN_1_FLR_1 RETURN AIR NODE NAME,Air,1
 Node,265,CORNER_CLASS_1_POD_1_ZN_1_FLR_2 AIR NODE,Air,0
 Node,266,CORNER_CLASS_1_POD_1_ZN_1_FLR_2 RETURN AIR NODE NAME,Air,1
 Node,267,CORNER_CLASS_1_POD_2_ZN_1_FLR_1 AIR NODE,Air,0
 Node,268,CORNER_CLASS_1_POD_2_ZN_1_FLR_1 RETURN AIR NODE NAME,Air,1
 Node,269,CORNER_CLASS_1_POD_2_ZN_1_FLR_2 AIR NODE,Air,0
 Node,270,CORNER_CLASS_1_POD_2_ZN_1_FLR_2 RETURN AIR NODE NAME,Air,1
 Node,271,CORNER_CLASS_1_POD_3_ZN_1_FLR_1 AIR NODE,Air,0
 Node,272,CORNER_CLASS_1_POD_3_ZN_1_FLR_1 RETURN AIR NODE NAME,Air,1
 Node,273,CORNER_CLASS_1_POD_3_ZN_1_FLR_2 AIR NODE,Air,0
 Node,274,CORNER_CLASS_1_POD_3_ZN_1_FLR_2 RETURN AIR NODE NAME,Air,1
 Node,275,CORNER_CLASS_2_POD_1_ZN_1_FLR_1 AIR NODE,Air,0
 Node,276,CORNER_CLASS_2_POD_1_ZN_1_FLR_1 RETURN AIR NODE NAME,Air,1
 Node,277,CORNER_CLASS_2_POD_1_ZN_1_FLR_2 AIR NODE,Air,0
 Node,278,CORNER_CLASS_2_POD_1_ZN_1_FLR_2 RETURN AIR NODE NAME,Air,1
 Node,279,CORNER_CLASS_2_POD_2_ZN_1_FLR_1 AIR NODE,Air,0
 Node,280,CORNER_CLASS_2_POD_2_ZN_1_FLR_1 RETURN AIR NODE NAME,Air,1
 Node,281,CORNER_CLASS_2_POD_2_ZN_1_FLR_2 AIR NODE,Air,0
 Node,282,CORNER_CLASS_2_POD_2_ZN_1_FLR_2 RETURN AIR NODE NAME,Air,1
 Node,283,CORNER_CLASS_2_POD_3_ZN_1_FLR_1 AIR NODE,Air,0
 Node,284,CORNER_CLASS_2_POD_3_ZN_1_FLR_1 RETURN AIR NODE NAME,Air,1
 Node,285,CORNER_CLASS_2_POD_3_ZN_1_FLR_2 AIR NODE,Air,0
 Node,286,CORNER_CLASS_2_POD_3_ZN_1_FLR_2 RETURN AIR NODE NAME,Air,1
 Node,287,CORRIDOR_POD_1_ZN_1_FLR_1 AIR NODE,Air,0
 Node,288,CORRIDOR_POD_1_ZN_1_FLR_1 RETURN AIR NODE NAME,Air,1
 Node,289,CORRIDOR_POD_1_ZN_1_FLR_2 AIR NODE,Air,0
 Node,290,CORRIDOR_POD_1_ZN_1_FLR_2 RETURN AIR NODE NAME,Air,1
 Node,291,CORRIDOR_POD_2_ZN_1_FLR_1 AIR NODE,Air,0
 Node,292,CORRIDOR_POD_2_ZN_1_FLR_1 RETURN AIR NODE NAME,Air,1
 Node,293,CORRIDOR_POD_2_ZN_1_FLR_2 AIR NODE,Air,0
 Node,294,CORRIDOR_POD_2_ZN_1_FLR_2 RETURN AIR NODE NAME,Air,1
 Node,295,CORRIDOR_POD_3_ZN_1_FLR_1 AIR NODE,Air,0
 Node,296,CORRIDOR_POD_3_ZN_1_FLR_1 RETURN AIR NODE NAME,Air,1
 Node,297,CORRIDOR_POD_3_ZN_1_FLR_2 AIR NODE,Air,0
 Node,298,CORRIDOR_POD_3_ZN_1_FLR_2 RETURN AIR NODE NAME,Air,1
 Node,299,GYM_ZN_1_FLR_1 AIR NODE,Air,1
 Node,300,GYM_ZN_1_FLR_1 RETURN AIR NODE NAME,Air,1
 Node,301,KITCHEN_ZN_1_FLR_1 AIR NODE,Air,1
 Node,302,KITCHEN_ZN_1_FLR_1 RETURN AIR NODE NAME,Air,1
 Node,303,LIBRARY_MEDIA_CENTER_ZN_1_FLR_2 AIR NODE,Air,0
 Node,304,LIBRARY_MEDIA_CENTER_ZN_1_FLR_2 RETURN AIR NODE NAME,Air,1
 Node,305,LOBBY_ZN_1_FLR_1 AIR NODE,Air,0
 Node,306,LOBBY_ZN_1_FLR_1 RETURN AIR NODE NAME,Air,1
 Node,307,LOBBY_ZN_1_FLR_2 AIR NODE,Air,0
 Node,308,LOBBY_ZN_1_FLR_2 RETURN AIR NODE NAME,Air,1
 Node,309,MAIN_CORRIDOR_ZN_1_FLR_1 AIR NODE,Air,0
 Node,310,MAIN_CORRIDOR_ZN_1_FLR_1 RETURN AIR NODE NAME,Air,1
 Node,311,MAIN_CORRIDOR_ZN_1_FLR_2 AIR NODE,Air,0
 Node,312,MAIN_CORRIDOR_ZN_1_FLR_2 RETURN AIR NODE NAME,Air,1
 Node,313,MECH_ZN_1_FLR_1 AIR NODE,Air,0
 Node,314,MECH_ZN_1_FLR_1 RETURN AIR NODE NAME,Air,1
 Node,315,MECH_ZN_1_FLR_2 AIR NODE,Air,0
 Node,316,MECH_ZN_1_FLR_2 RETURN AIR NODE NAME,Air,1
 Node,317,MULT_CLASS_1_POD_1_ZN_1_FLR_1 AIR NODE,Air,0
 Node,318,MULT_CLASS_1_POD_1_ZN_1_FLR_1 RETURN AIR NODE NAME,Air,1
 Node,319,MULT_CLASS_1_POD_1_ZN_1_FLR_2 AIR NODE,Air,0
 Node,320,MULT_CLASS_1_POD_1_ZN_1_FLR_2 RETURN AIR NODE NAME,Air,1
 Node,321,MULT_CLASS_1_POD_2_ZN_1_FLR_1 AIR NODE,Air,0
 Node,322,MULT_CLASS_1_POD_2_ZN_1_FLR_1 RETURN AIR NODE NAME,Air,1
 Node,323,MULT_CLASS_1_POD_2_ZN_1_FLR_2 AIR NODE,Air,0
 Node,324,MULT_CLASS_1_POD_2_ZN_1_FLR_2 RETURN AIR NODE NAME,Air,1
 Node,325,MULT_CLASS_1_POD_3_ZN_1_FLR_1 AIR NODE,Air,0
 Node,326,MULT_CLASS_1_POD_3_ZN_1_FLR_1 RETURN AIR NODE NAME,Air,1
 Node,327,MULT_CLASS_1_POD_3_ZN_1_FLR_2 AIR NODE,Air,0
 Node,328,MULT_CLASS_1_POD_3_ZN_1_FLR_2 RETURN AIR NODE NAME,Air,1
 Node,329,MULT_CLASS_2_POD_1_ZN_1_FLR_1 AIR NODE,Air,0
 Node,330,MULT_CLASS_2_POD_1_ZN_1_FLR_1 RETURN AIR NODE NAME,Air,1
 Node,331,MULT_CLASS_2_POD_1_ZN_1_FLR_2 AIR NODE,Air,0
 Node,332,MULT_CLASS_2_POD_1_ZN_1_FLR_2 RETURN AIR NODE NAME,Air,1
 Node,333,MULT_CLASS_2_POD_2_ZN_1_FLR_1 AIR NODE,Air,0
 Node,334,MULT_CLASS_2_POD_2_ZN_1_FLR_1 RETURN AIR NODE NAME,Air,1
 Node,335,MULT_CLASS_2_POD_2_ZN_1_FLR_2 AIR NODE,Air,0
 Node,336,MULT_CLASS_2_POD_2_ZN_1_FLR_2 RETURN AIR NODE NAME,Air,1
 Node,337,MULT_CLASS_2_POD_3_ZN_1_FLR_1 AIR NODE,Air,0
 Node,338,MULT_CLASS_2_POD_3_ZN_1_FLR_1 RETURN AIR NODE NAME,Air,1
 Node,339,MULT_CLASS_2_POD_3_ZN_1_FLR_2 AIR NODE,Air,0
 Node,340,MULT_CLASS_2_POD_3_ZN_1_FLR_2 RETURN AIR NODE NAME,Air,1
 Node,341,OFFICES_ZN_1_FLR_1 AIR NODE,Air,0
 Node,342,OFFICES_ZN_1_FLR_1 RETURN AIR NODE NAME,Air,1
 Node,343,OFFICES_ZN_1_FLR_2 AIR NODE,Air,0
 Node,344,OFFICES_ZN_1_FLR_2 RETURN AIR NODE NAME,Air,1
 Node,345,PSZ-AC_1:5 ZONE EQUIPMENT INLET NODE,Air,2
 Node,346,PSZ-AC_2:6 ZONE EQUIPMENT INLET NODE,Air,2
 Node,347,PSZ-AC_3:7 ZONE EQUIPMENT INLET NODE,Air,2
 Node,348,PSZ-AC_4:8 ZONE EQUIPMENT INLET NODE,Air,2
 Node,349,PSZ-AC_5:9 ZONE EQUIPMENT INLET NODE,Air,2
 Node,350,VAV_OTHER ZONE EQUIPMENT INLET NODE,Air,2
 Node,351,VAV_POD_1 ZONE EQUIPMENT INLET NODE,Air,2
 Node,352,VAV_POD_2 ZONE EQUIPMENT INLET NODE,Air,2
 Node,353,VAV_POD_3 ZONE EQUIPMENT INLET NODE,Air,2
 Node,354,PSZ-AC_1:5 ZONE EQUIPMENT OUTLET NODE,Air,2
 Node,355,PSZ-AC_2:6 ZONE EQUIPMENT OUTLET NODE,Air,2
 Node,356,PSZ-AC_3:7 ZONE EQUIPMENT OUTLET NODE,Air,2
 Node,357,PSZ-AC_4:8 ZONE EQUIPMENT OUTLET NODE,Air,2
 Node,358,PSZ-AC_5:9 ZONE EQUIPMENT OUTLET NODE,Air,2
 Node,359,VAV_OTHER ZONE EQUIPMENT OUTLET NODE,Air,2
 Node,360,VAV_POD_1 ZONE EQUIPMENT OUTLET NODE,Air,2
 Node,361,VAV_POD_2 ZONE EQUIPMENT OUTLET NODE,Air,2
 Node,362,VAV_POD_3 ZONE EQUIPMENT OUTLET NODE,Air,2
 Node,363,RACK1_CONDENSERINLET,Air,1
 Node,364,PSZ-AC_1:5_COOLCOA REF NODE,Air,0
 Node,365,PSZ-AC_2:6_COOLCOA REF NODE,Air,0
 Node,366,PSZ-AC_3:7_COOLCOA REF NODE,Air,0
 Node,367,PSZ-AC_4:8_COOLCOA REF NODE,Air,0
 Node,368,PSZ-AC_5:9_COOLCOA REF NODE,Air,0
 Node,369,COOLSYS1 CHILLERCONDENSER OA INLET,Air,1
 Node,370,RACK2_CONDENSERINLET,Air,1
 Node,371,MAIN_CORRIDOR_ZN_1_FLR_1 VAV BOX INLET NODE NAME,Air,1
 Node,372,MAIN_CORRIDOR_ZN_1_FLR_2 VAV BOX INLET NODE NAME,Air,1
 Node,373,LOBBY_ZN_1_FLR_1 VAV BOX INLET NODE NAME,Air,1
 Node,374,LOBBY_ZN_1_FLR_2 VAV BOX INLET NODE NAME,Air,1
 Node,375,BATHROOMS_ZN_1_FLR_1 VAV BOX INLET NODE NAME,Air,1
 Node,376,BATHROOMS_ZN_1_FLR_2 VAV BOX INLET NODE NAME,Air,1
 Node,377,OFFICES_ZN_1_FLR_1 VAV BOX INLET NODE NAME,Air,1
 Node,378,OFFICES_ZN_1_FLR_2 VAV BOX INLET NODE NAME,Air,1
 Node,379,LIBRARY_MEDIA_CENTER_ZN_1_FLR_2 VAV BOX INLET NODE NAME,Air,1
 Node,380,MECH_ZN_1_FLR_1 VAV BOX INLET NODE NAME,Air,1
 Node,381,MECH_ZN_1_FLR_2 VAV BOX INLET NODE NAME,Air,1
 Node,382,CORNER_CLASS_1_POD_1_ZN_1_FLR_1 VAV BOX INLET NODE NAME,Air,1
 Node,383,CORNER_CLASS_1_POD_1_ZN_1_FLR_2 VAV BOX INLET NODE NAME,Air,1
 Node,384,MULT_CLASS_1_POD_1_ZN_1_FLR_1 VAV BOX INLET NODE NAME,Air,1
 Node,385,MULT_CLASS_1_POD_1_ZN_1_FLR_2 VAV BOX INLET NODE NAME,Air,1
 Node,386,CORRIDOR_POD_1_ZN_1_FLR_1 VAV BOX INLET NODE NAME,Air,1
 Node,387,CORRIDOR_POD_1_ZN_1_FLR_2 VAV BOX INLET NODE NAME,Air,1
 Node,388,CORNER_CLASS_2_POD_1_ZN_1_FLR_1 VAV BOX INLET NODE NAME,Air,1
 Node,389,CORNER_CLASS_2_POD_1_ZN_1_FLR_2 VAV BOX INLET NODE NAME,Air,1
 Node,390,MULT_CLASS_2_POD_1_ZN_1_FLR_1 VAV BOX INLET NODE NAME,Air,1
 Node,391,MULT_CLASS_2_POD_1_ZN_1_FLR_2 VAV BOX INLET NODE NAME,Air,1
 Node,392,CORNER_CLASS_1_POD_2_ZN_1_FLR_1 VAV BOX INLET NODE NAME,Air,1
 Node,393,CORNER_CLASS_1_POD_2_ZN_1_FLR_2 VAV BOX INLET NODE NAME,Air,1
 Node,394,MULT_CLASS_1_POD_2_ZN_1_FLR_1 VAV BOX INLET NODE NAME,Air,1
 Node,395,MULT_CLASS_1_POD_2_ZN_1_FLR_2 VAV BOX INLET NODE NAME,Air,1
 Node,396,CORRIDOR_POD_2_ZN_1_FLR_1 VAV BOX INLET NODE NAME,Air,1
 Node,397,CORRIDOR_POD_2_ZN_1_FLR_2 VAV BOX INLET NODE NAME,Air,1
 Node,398,CORNER_CLASS_2_POD_2_ZN_1_FLR_1 VAV BOX INLET NODE NAME,Air,1
 Node,399,CORNER_CLASS_2_POD_2_ZN_1_FLR_2 VAV BOX INLET NODE NAME,Air,1
 Node,400,MULT_CLASS_2_POD_2_ZN_1_FLR_1 VAV BOX INLET NODE NAME,Air,1
 Node,401,MULT_CLASS_2_POD_2_ZN_1_FLR_2 VAV BOX INLET NODE NAME,Air,1
 Node,402,CORNER_CLASS_1_POD_3_ZN_1_FLR_1 VAV BOX INLET NODE NAME,Air,1
 Node,403,CORNER_CLASS_1_POD_3_ZN_1_FLR_2 VAV BOX INLET NODE NAME,Air,1
 Node,404,MULT_CLASS_1_POD_3_ZN_1_FLR_1 VAV BOX INLET NODE NAME,Air,1
 Node,405,MULT_CLASS_1_POD_3_ZN_1_FLR_2 VAV BOX INLET NODE NAME,Air,1
 Node,406,CORRIDOR_POD_3_ZN_1_FLR_1 VAV BOX INLET NODE NAME,Air,1
 Node,407,CORRIDOR_POD_3_ZN_1_FLR_2 VAV BOX INLET NODE NAME,Air,1
 Node,408,CORNER_CLASS_2_POD_3_ZN_1_FLR_1 VAV BOX INLET NODE NAME,Air,1
 Node,409,CORNER_CLASS_2_POD_3_ZN_1_FLR_2 VAV BOX INLET NODE NAME,Air,1
 Node,410,MULT_CLASS_2_POD_3_ZN_1_FLR_1 VAV BOX INLET NODE NAME,Air,1
 Node,411,MULT_CLASS_2_POD_3_ZN_1_FLR_2 VAV BOX INLET NODE NAME,Air,1
 Node,412,BATHROOMS_ZN_1_FLR_1 EXHAUST FAN OUTLET NODE NAME,Air,0
 Node,413,BATHROOMS_ZN_1_FLR_2 EXHAUST FAN OUTLET NODE NAME,Air,0
 Node,414,CAFETERIA_ZN_1_FLR_1 EXHAUST FAN OUTLET NODE NAME,Air,0
 Node,415,KITCHEN_ZN_1_FLR_1 EXHAUST FAN OUTLET NODE NAME,Air,0
 Node,416,BATHROOMS_ZN_1_FLR_1 VAV BOX DAMPER NODE,Air,1
 Node,417,BATHROOMS_ZN_1_FLR_2 VAV BOX DAMPER NODE,Air,1
 Node,418,CORNER_CLASS_1_POD_1_ZN_1_FLR_1 VAV BOX DAMPER NODE,Air,1
 Node,419,CORNER_CLASS_1_POD_1_ZN_1_FLR_2 VAV BOX DAMPER NODE,Air,1
 Node,420,CORNER_CLASS_1_POD_2_ZN_1_FLR_1 VAV BOX DAMPER NODE,Air,1
 Node,421,CORNER_CLASS_1_POD_2_ZN_1_FLR_2 VAV BOX DAMPER NODE,Air,1
 Node,422,CORNER_CLASS_1_POD_3_ZN_1_FLR_1 VAV BOX DAMPER NODE,Air,1
 Node,423,CORNER_CLASS_1_POD_3_ZN_1_FLR_2 VAV BOX DAMPER NODE,Air,1
 Node,424,CORNER_CLASS_2_POD_1_ZN_1_FLR_1 VAV BOX DAMPER NODE,Air,1
 Node,425,CORNER_CLASS_2_POD_1_ZN_1_FLR_2 VAV BOX DAMPER NODE,Air,1
 Node,426,CORNER_CLASS_2_POD_2_ZN_1_FLR_1 VAV BOX DAMPER NODE,Air,1
 Node,427,CORNER_CLASS_2_POD_2_ZN_1_FLR_2 VAV BOX DAMPER NODE,Air,1
 Node,428,CORNER_CLASS_2_POD_3_ZN_1_FLR_1 VAV BOX DAMPER NODE,Air,1
 Node,429,CORNER_CLASS_2_POD_3_ZN_1_FLR_2 VAV BOX DAMPER NODE,Air,1
 Node,430,CORRIDOR_POD_1_ZN_1_FLR_1 VAV BOX DAMPER NODE,Air,1
 Node,431,CORRIDOR_POD_1_ZN_1_FLR_2 VAV BOX DAMPER NODE,Air,1
 Node,432,CORRIDOR_POD_2_ZN_1_FLR_1 VAV BOX DAMPER NODE,Air,1
 Node,433,CORRIDOR_POD_2_ZN_1_FLR_2 VAV BOX DAMPER NODE,Air,1
 Node,434,CORRIDOR_POD_3_ZN_1_FLR_1 VAV BOX DAMPER NODE,Air,1
 Node,435,CORRIDOR_POD_3_ZN_1_FLR_2 VAV BOX DAMPER NODE,Air,1
 Node,436,LIBRARY_MEDIA_CENTER_ZN_1_FLR_2 VAV BOX DAMPER NODE,Air,1
 Node,437,LOBBY_ZN_1_FLR_1 VAV BOX DAMPER NODE,Air,1
 Node,438,LOBBY_ZN_1_FLR_2 VAV BOX DAMPER NODE,Air,1
 Node,439,MAIN_CORRIDOR_ZN_1_FLR_1 VAV BOX DAMPER NODE,Air,1
 Node,440,MAIN_CORRIDOR_ZN_1_FLR_2 VAV BOX DAMPER NODE,Air,1
 Node,441,MECH_ZN_1_FLR_1 VAV BOX DAMPER NODE,Air,1
 Node,442,MECH_ZN_1_FLR_2 VAV BOX DAMPER NODE,Air,1
 Node,443,MULT_CLASS_1_POD_1_ZN_1_FLR_1 VAV BOX DAMPER NODE,Air,1
 Node,444,MULT_CLASS_1_POD_1_ZN_1_FLR_2 VAV BOX DAMPER NODE,Air,1
 Node,445,MULT_CLASS_1_POD_2_ZN_1_FLR_1 VAV BOX DAMPER NODE,Air,1
 Node,446,MULT_CLASS_1_POD_2_ZN_1_FLR_2 VAV BOX DAMPER NODE,Air,1
 Node,447,MULT_CLASS_1_POD_3_ZN_1_FLR_1 VAV BOX DAMPER NODE,Air,1
 Node,448,MULT_CLASS_1_POD_3_ZN_1_FLR_2 VAV BOX DAMPER NODE,Air,1
 Node,449,MULT_CLASS_2_POD_1_ZN_1_FLR_1 VAV BOX DAMPER NODE,Air,1
 Node,450,MULT_CLASS_2_POD_1_ZN_1_FLR_2 VAV BOX DAMPER NODE,Air,1
 Node,451,MULT_CLASS_2_POD_2_ZN_1_FLR_1 VAV BOX DAMPER NODE,Air,1
 Node,452,MULT_CLASS_2_POD_2_ZN_1_FLR_2 VAV BOX DAMPER NODE,Air,1
 Node,453,MULT_CLASS_2_POD_3_ZN_1_FLR_1 VAV BOX DAMPER NODE,Air,1
 Node,454,MULT_CLASS_2_POD_3_ZN_1_FLR_2 VAV BOX DAMPER NODE,Air,1
 Node,455,OFFICES_ZN_1_FLR_1 VAV BOX DAMPER NODE,Air,1
 Node,456,OFFICES_ZN_1_FLR_2 VAV BOX DAMPER NODE,Air,1
 Node,457,PSZ-AC_1:5_OARELIEF NODE,Air,1
 Node,458,PSZ-AC_2:6_OARELIEF NODE,Air,1
 Node,459,PSZ-AC_3:7_OARELIEF NODE,Air,1
 Node,460,PSZ-AC_4:8_OARELIEF NODE,Air,1
 Node,461,PSZ-AC_5:9_OARELIEF NODE,Air,1
 Node,462,VAV_OTHER_OARELIEF NODE,Air,1
 Node,463,VAV_POD_1_OARELIEF NODE,Air,1
 Node,464,VAV_POD_2_OARELIEF NODE,Air,1
 Node,465,VAV_POD_3_OARELIEF NODE,Air,1
 Node,466,COOLSYS1 CHILLERCONDENSER OUTLET,Air,0
! ===============================================================
! Suspicious nodes have 0 references.  It is normal for some nodes, however.
! Listing nodes with 0 references (culled from previous list):
! <Suspicious Node>,<NodeNumber>,<Node Name>,<Node Fluid Type>,<# Times Node Referenced After Definition>
 Suspicious Node,257,BATHROOMS_ZN_1_FLR_1 AIR NODE,Air,0
 Suspicious Node,259,BATHROOMS_ZN_1_FLR_2 AIR NODE,Air,0
 Suspicious Node,263,CORNER_CLASS_1_POD_1_ZN_1_FLR_1 AIR NODE,Air,0
 Suspicious Node,265,CORNER_CLASS_1_POD_1_ZN_1_FLR_2 AIR NODE,Air,0
 Suspicious Node,267,CORNER_CLASS_1_POD_2_ZN_1_FLR_1 AIR NODE,Air,0
 Suspicious Node,269,CORNER_CLASS_1_POD_2_ZN_1_FLR_2 AIR NODE,Air,0
 Suspicious Node,271,CORNER_CLASS_1_POD_3_ZN_1_FLR_1 AIR NODE,Air,0
 Suspicious Node,273,CORNER_CLASS_1_POD_3_ZN_1_FLR_2 AIR NODE,Air,0
 Suspicious Node,275,CORNER_CLASS_2_POD_1_ZN_1_FLR_1 AIR NODE,Air,0
 Suspicious Node,277,CORNER_CLASS_2_POD_1_ZN_1_FLR_2 AIR NODE,Air,0
 Suspicious Node,279,CORNER_CLASS_2_POD_2_ZN_1_FLR_1 AIR NODE,Air,0
 Suspicious Node,281,CORNER_CLASS_2_POD_2_ZN_1_FLR_2 AIR NODE,Air,0
 Suspicious Node,283,CORNER_CLASS_2_POD_3_ZN_1_FLR_1 AIR NODE,Air,0
 Suspicious Node,285,CORNER_CLASS_2_POD_3_ZN_1_FLR_2 AIR NODE,Air,0
 Suspicious Node,287,CORRIDOR_POD_1_ZN_1_FLR_1 AIR NODE,Air,0
 Suspicious Node,289,CORRIDOR_POD_1_ZN_1_FLR_2 AIR NODE,Air,0
 Suspicious Node,291,CORRIDOR_POD_2_ZN_1_FLR_1 AIR NODE,Air,0
 Suspicious Node,293,CORRIDOR_POD_2_ZN_1_FLR_2 AIR NODE,Air,0
 Suspicious Node,295,CORRIDOR_POD_3_ZN_1_FLR_1 AIR NODE,Air,0
 Suspicious Node,297,CORRIDOR_POD_3_ZN_1_FLR_2 AIR NODE,Air,0
 Suspicious Node,303,LIBRARY_MEDIA_CENTER_ZN_1_FLR_2 AIR NODE,Air,0
 Suspicious Node,305,LOBBY_ZN_1_FLR_1 AIR NODE,Air,0
 Suspicious Node,307,LOBBY_ZN_1_FLR_2 AIR NODE,Air,0
 Suspicious Node,309,MAIN_CORRIDOR_ZN_1_FLR_1 AIR NODE,Air,0
 Suspicious Node,311,MAIN_CORRIDOR_ZN_1_FLR_2 AIR NODE,Air,0
 Suspicious Node,313,MECH_ZN_1_FLR_1 AIR NODE,Air,0
 Suspicious Node,315,MECH_ZN_1_FLR_2 AIR NODE,Air,0
 Suspicious Node,317,MULT_CLASS_1_POD_1_ZN_1_FLR_1 AIR NODE,Air,0
 Suspicious Node,319,MULT_CLASS_1_POD_1_ZN_1_FLR_2 AIR NODE,Air,0
 Suspicious Node,321,MULT_CLASS_1_POD_2_ZN_1_FLR_1 AIR NODE,Air,0
 Suspicious Node,323,MULT_CLASS_1_POD_2_ZN_1_FLR_2 AIR NODE,Air,0
 Suspicious Node,325,MULT_CLASS_1_POD_3_ZN_1_FLR_1 AIR NODE,Air,0
 Suspicious Node,327,MULT_CLASS_1_POD_3_ZN_1_FLR_2 AIR NODE,Air,0
 Suspicious Node,329,MULT_CLASS_2_POD_1_ZN_1_FLR_1 AIR NODE,Air,0
 Suspicious Node,331,MULT_CLASS_2_POD_1_ZN_1_FLR_2 AIR NODE,Air,0
 Suspicious Node,333,MULT_CLASS_2_POD_2_ZN_1_FLR_1 AIR NODE,Air,0
 Suspicious Node,335,MULT_CLASS_2_POD_2_ZN_1_FLR_2 AIR NODE,Air,0
 Suspicious Node,337,MULT_CLASS_2_POD_3_ZN_1_FLR_1 AIR NODE,Air,0
 Suspicious Node,339,MULT_CLASS_2_POD_3_ZN_1_FLR_2 AIR NODE,Air,0
 Suspicious Node,341,OFFICES_ZN_1_FLR_1 AIR NODE,Air,0
 Suspicious Node,343,OFFICES_ZN_1_FLR_2 AIR NODE,Air,0
 Suspicious Node,364,PSZ-AC_1:5_COOLCOA REF NODE,Air,0
 Suspicious Node,365,PSZ-AC_2:6_COOLCOA REF NODE,Air,0
 Suspicious Node,366,PSZ-AC_3:7_COOLCOA REF NODE,Air,0
 Suspicious Node,367,PSZ-AC_4:8_COOLCOA REF NODE,Air,0
 Suspicious Node,368,PSZ-AC_5:9_COOLCOA REF NODE,Air,0
 Suspicious Node,412,BATHROOMS_ZN_1_FLR_1 EXHAUST FAN OUTLET NODE NAME,Air,0
 Suspicious Node,413,BATHROOMS_ZN_1_FLR_2 EXHAUST FAN OUTLET NODE NAME,Air,0
 Suspicious Node,414,CAFETERIA_ZN_1_FLR_1 EXHAUST FAN OUTLET NODE NAME,Air,0
 Suspicious Node,415,KITCHEN_ZN_1_FLR_1 EXHAUST FAN OUTLET NODE NAME,Air,0
 Suspicious Node,466,COOLSYS1 CHILLERCONDENSER OUTLET,Air,0
! ===============================================================
! <#Branch Lists>,<Number of Branch Lists>
 #Branch Lists,15
! <Branch List>,<Branch List Count>,<Branch List Name>,<Loop Name>,<Loop Type>,<Number of Branches>
! <Branch>,<Branch Count>,<Branch Name>,<Loop Name>,<Loop Type>,<Branch Inlet Node Name>,<Branch Outlet Node Name>
 Branch List,1,PSZ-AC_1:5 AIR LOOP BRANCHES,PSZ-AC_1:5,Air,1
   Branch,1,PSZ-AC_1:5 AIR LOOP MAIN BRANCH,PSZ-AC_1:5,Air,PSZ-AC_1:5 SUPPLY EQUIPMENT INLET NODE,PSZ-AC_1:5 SUPPLY EQUIPMENT OUTLET NODE
 Branch List,2,PSZ-AC_2:6 AIR LOOP BRANCHES,PSZ-AC_2:6,Air,1
   Branch,1,PSZ-AC_2:6 AIR LOOP MAIN BRANCH,PSZ-AC_2:6,Air,PSZ-AC_2:6 SUPPLY EQUIPMENT INLET NODE,PSZ-AC_2:6 SUPPLY EQUIPMENT OUTLET NODE
 Branch List,3,PSZ-AC_3:7 AIR LOOP BRANCHES,PSZ-AC_3:7,Air,1
   Branch,1,PSZ-AC_3:7 AIR LOOP MAIN BRANCH,PSZ-AC_3:7,Air,PSZ-AC_3:7 SUPPLY EQUIPMENT INLET NODE,PSZ-AC_3:7 SUPPLY EQUIPMENT OUTLET NODE
 Branch List,4,PSZ-AC_4:8 AIR LOOP BRANCHES,PSZ-AC_4:8,Air,1
   Branch,1,PSZ-AC_4:8 AIR LOOP MAIN BRANCH,PSZ-AC_4:8,Air,PSZ-AC_4:8 SUPPLY EQUIPMENT INLET NODE,PSZ-AC_4:8 SUPPLY EQUIPMENT OUTLET NODE
 Branch List,5,PSZ-AC_5:9 AIR LOOP BRANCHES,PSZ-AC_5:9,Air,1
   Branch,1,PSZ-AC_5:9 AIR LOOP MAIN BRANCH,PSZ-AC_5:9,Air,PSZ-AC_5:9 SUPPLY EQUIPMENT INLET NODE,PSZ-AC_5:9 SUPPLY EQUIPMENT OUTLET NODE
 Branch List,6,VAV_OTHER AIR LOOP BRANCHES,VAV_OTHER,Air,1
   Branch,1,VAV_OTHER AIR LOOP MAIN BRANCH,VAV_OTHER,Air,VAV_OTHER SUPPLY EQUIPMENT INLET NODE,VAV_OTHER SUPPLY EQUIPMENT OUTLET NODE
 Branch List,7,VAV_POD_1 AIR LOOP BRANCHES,VAV_POD_1,Air,1
   Branch,1,VAV_POD_1 AIR LOOP MAIN BRANCH,VAV_POD_1,Air,VAV_POD_1 SUPPLY EQUIPMENT INLET NODE,VAV_POD_1 SUPPLY EQUIPMENT OUTLET NODE
 Branch List,8,VAV_POD_2 AIR LOOP BRANCHES,VAV_POD_2,Air,1
   Branch,1,VAV_POD_2 AIR LOOP MAIN BRANCH,VAV_POD_2,Air,VAV_POD_2 SUPPLY EQUIPMENT INLET NODE,VAV_POD_2 SUPPLY EQUIPMENT OUTLET NODE
 Branch List,9,VAV_POD_3 AIR LOOP BRANCHES,VAV_POD_3,Air,1
   Branch,1,VAV_POD_3 AIR LOOP MAIN BRANCH,VAV_POD_3,Air,VAV_POD_3 SUPPLY EQUIPMENT INLET NODE,VAV_POD_3 SUPPLY EQUIPMENT OUTLET NODE
 Branch List,10,COOLSYS1 DEMAND BRANCHES,COOLSYS1,Plant Demand,7
   Branch,1,COOLSYS1 DEMAND INLET BRANCH,COOLSYS1,Plant Demand,COOLSYS1 DEMAND INLET NODE,COOLSYS1 DEMAND INLET PIPE-COOLSYS1 DEMAND MIXER
   Branch,2,COOLSYS1 DEMAND LOAD BRANCH 1,COOLSYS1,Plant Demand,VAV_POD_1_COOLCDEMAND INLET NODE,VAV_POD_1_COOLCDEMAND OUTLET NODE
   Branch,3,COOLSYS1 DEMAND LOAD BRANCH 2,COOLSYS1,Plant Demand,VAV_POD_2_COOLCDEMAND INLET NODE,VAV_POD_2_COOLCDEMAND OUTLET NODE
   Branch,4,COOLSYS1 DEMAND LOAD BRANCH 3,COOLSYS1,Plant Demand,VAV_POD_3_COOLCDEMAND INLET NODE,VAV_POD_3_COOLCDEMAND OUTLET NODE
   Branch,5,COOLSYS1 DEMAND LOAD BRANCH 4,COOLSYS1,Plant Demand,VAV_OTHER_COOLCDEMAND INLET NODE,VAV_OTHER_COOLCDEMAND OUTLET NODE
   Branch,6,COOLSYS1 DEMAND BYPASS BRANCH,COOLSYS1,Plant Demand,COOLSYS1 DEMAND BYPASS PIPE INLET NODE,COOLSYS1 DEMAND BYPASS PIPE OUTLET NODE
   Branch,7,COOLSYS1 DEMAND OUTLET BRANCH,COOLSYS1,Plant Demand,COOLSYS1 DEMAND MIXER-COOLSYS1 DEMAND OUTLET PIPE,COOLSYS1 DEMAND OUTLET NODE
 Branch List,11,COOLSYS1 SUPPLY BRANCHES,COOLSYS1,Plant Supply,4
   Branch,1,COOLSYS1 SUPPLY INLET BRANCH,COOLSYS1,Plant Supply,COOLSYS1 SUPPLY INLET NODE,COOLSYS1 PUMP-COOLSYS1 CHILLERNODEVIACONNECTOR
   Branch,2,COOLSYS1 SUPPLY EQUIPMENT BRANCH,COOLSYS1,Plant Supply,COOLSYS1 PUMP-COOLSYS1 CHILLERNODE,COOLSYS1 SUPPLY EQUIPMENT OUTLET NODE
   Branch,3,COOLSYS1 SUPPLY EQUIPMENT BYPASS BRANCH,COOLSYS1,Plant Supply,COOLSYS1 SUPPLY EQUIP BYPASS INLET NODE,COOLSYS1 SUPPLY EQUIP BYPASS OUTLET NODE
   Branch,4,COOLSYS1 SUPPLY OUTLET BRANCH,COOLSYS1,Plant Supply,COOLSYS1 SUPPLY MIXER-COOLSYS1 SUPPLY OUTLET PIPE,COOLSYS1 SUPPLY OUTLET NODE
 Branch List,12,HEATSYS1 DEMAND BRANCHES,HEATSYS1,Plant Demand,48
   Branch,1,HEATSYS1 DEMAND INLET BRANCH,HEATSYS1,Plant Demand,HEATSYS1 DEMAND INLET NODE,HEATSYS1 DEMAND INLET PIPE-HEATSYS1 DEMAND MIXER
   Branch,2,HEATSYS1 DEMAND LOAD BRANCH 1,HEATSYS1,Plant Demand,CORNER_CLASS_1_POD_1_ZN_1_FLR_1 VAV BOX REHEAT COILDEMAND INLET NODE,CORNER_CLASS_1_POD_1_ZN_1_FLR_1 VAV BOX REHEAT COILDEMAND OUTLET NODE
   Branch,3,HEATSYS1 DEMAND LOAD BRANCH 2,HEATSYS1,Plant Demand,CORNER_CLASS_1_POD_1_ZN_1_FLR_2 VAV BOX REHEAT COILDEMAND INLET NODE,CORNER_CLASS_1_POD_1_ZN_1_FLR_2 VAV BOX REHEAT COILDEMAND OUTLET NODE
   Branch,4,HEATSYS1 DEMAND LOAD BRANCH 3,HEATSYS1,Plant Demand,MULT_CLASS_1_POD_1_ZN_1_FLR_1 VAV BOX REHEAT COILDEMAND INLET NODE,MULT_CLASS_1_POD_1_ZN_1_FLR_1 VAV BOX REHEAT COILDEMAND OUTLET NODE
   Branch,5,HEATSYS1 DEMAND LOAD BRANCH 4,HEATSYS1,Plant Demand,MULT_CLASS_1_POD_1_ZN_1_FLR_2 VAV BOX REHEAT COILDEMAND INLET NODE,MULT_CLASS_1_POD_1_ZN_1_FLR_2 VAV BOX REHEAT COILDEMAND OUTLET NODE
   Branch,6,HEATSYS1 DEMAND LOAD BRANCH 5,HEATSYS1,Plant Demand,CORRIDOR_POD_1_ZN_1_FLR_1 VAV BOX REHEAT COILDEMAND INLET NODE,CORRIDOR_POD_1_ZN_1_FLR_1 VAV BOX REHEAT COILDEMAND OUTLET NODE
   Branch,7,HEATSYS1 DEMAND LOAD BRANCH 6,HEATSYS1,Plant Demand,CORRIDOR_POD_1_ZN_1_FLR_2 VAV BOX REHEAT COILDEMAND INLET NODE,CORRIDOR_POD_1_ZN_1_FLR_2 VAV BOX REHEAT COILDEMAND OUTLET NODE
   Branch,8,HEATSYS1 DEMAND LOAD BRANCH 7,HEATSYS1,Plant Demand,CORNER_CLASS_2_POD_1_ZN_1_FLR_1 VAV BOX REHEAT COILDEMAND INLET NODE,CORNER_CLASS_2_POD_1_ZN_1_FLR_1 VAV BOX REHEAT COILDEMAND OUTLET NODE
   Branch,9,HEATSYS1 DEMAND LOAD BRANCH 8,HEATSYS1,Plant Demand,CORNER_CLASS_2_POD_1_ZN_1_FLR_2 VAV BOX REHEAT COILDEMAND INLET NODE,CORNER_CLASS_2_POD_1_ZN_1_FLR_2 VAV BOX REHEAT COILDEMAND OUTLET NODE
   Branch,10,HEATSYS1 DEMAND LOAD BRANCH 9,HEATSYS1,Plant Demand,MULT_CLASS_2_POD_1_ZN_1_FLR_1 VAV BOX REHEAT COILDEMAND INLET NODE,MULT_CLASS_2_POD_1_ZN_1_FLR_1 VAV BOX REHEAT COILDEMAND OUTLET NODE
   Branch,11,HEATSYS1 DEMAND LOAD BRANCH 10,HEATSYS1,Plant Demand,MULT_CLASS_2_POD_1_ZN_1_FLR_2 VAV BOX REHEAT COILDEMAND INLET NODE,MULT_CLASS_2_POD_1_ZN_1_FLR_2 VAV BOX REHEAT COILDEMAND OUTLET NODE
   Branch,12,HEATSYS1 DEMAND LOAD BRANCH 11,HEATSYS1,Plant Demand,CORNER_CLASS_1_POD_2_ZN_1_FLR_1 VAV BOX REHEAT COILDEMAND INLET NODE,CORNER_CLASS_1_POD_2_ZN_1_FLR_1 VAV BOX REHEAT COILDEMAND OUTLET NODE
   Branch,13,HEATSYS1 DEMAND LOAD BRANCH 12,HEATSYS1,Plant Demand,CORNER_CLASS_1_POD_2_ZN_1_FLR_2 VAV BOX REHEAT COILDEMAND INLET NODE,CORNER_CLASS_1_POD_2_ZN_1_FLR_2 VAV BOX REHEAT COILDEMAND OUTLET NODE
   Branch,14,HEATSYS1 DEMAND LOAD BRANCH 13,HEATSYS1,Plant Demand,MULT_CLASS_1_POD_2_ZN_1_FLR_1 VAV BOX REHEAT COILDEMAND INLET NODE,MULT_CLASS_1_POD_2_ZN_1_FLR_1 VAV BOX REHEAT COILDEMAND OUTLET NODE
   Branch,15,HEATSYS1 DEMAND LOAD BRANCH 14,HEATSYS1,Plant Demand,MULT_CLASS_1_POD_2_ZN_1_FLR_2 VAV BOX REHEAT COILDEMAND INLET NODE,MULT_CLASS_1_POD_2_ZN_1_FLR_2 VAV BOX REHEAT COILDEMAND OUTLET NODE
   Branch,16,HEATSYS1 DEMAND LOAD BRANCH 15,HEATSYS1,Plant Demand,CORRIDOR_POD_2_ZN_1_FLR_1 VAV BOX REHEAT COILDEMAND INLET NODE,CORRIDOR_POD_2_ZN_1_FLR_1 VAV BOX REHEAT COILDEMAND OUTLET NODE
   Branch,17,HEATSYS1 DEMAND LOAD BRANCH 16,HEATSYS1,Plant Demand,CORRIDOR_POD_2_ZN_1_FLR_2 VAV BOX REHEAT COILDEMAND INLET NODE,CORRIDOR_POD_2_ZN_1_FLR_2 VAV BOX REHEAT COILDEMAND OUTLET NODE
   Branch,18,HEATSYS1 DEMAND LOAD BRANCH 17,HEATSYS1,Plant Demand,CORNER_CLASS_2_POD_2_ZN_1_FLR_1 VAV BOX REHEAT COILDEMAND INLET NODE,CORNER_CLASS_2_POD_2_ZN_1_FLR_1 VAV BOX REHEAT COILDEMAND OUTLET NODE
   Branch,19,HEATSYS1 DEMAND LOAD BRANCH 18,HEATSYS1,Plant Demand,CORNER_CLASS_2_POD_2_ZN_1_FLR_2 VAV BOX REHEAT COILDEMAND INLET NODE,CORNER_CLASS_2_POD_2_ZN_1_FLR_2 VAV BOX REHEAT COILDEMAND OUTLET NODE
   Branch,20,HEATSYS1 DEMAND LOAD BRANCH 19,HEATSYS1,Plant Demand,MULT_CLASS_2_POD_2_ZN_1_FLR_1 VAV BOX REHEAT COILDEMAND INLET NODE,MULT_CLASS_2_POD_2_ZN_1_FLR_1 VAV BOX REHEAT COILDEMAND OUTLET NODE
   Branch,21,HEATSYS1 DEMAND LOAD BRANCH 20,HEATSYS1,Plant Demand,MULT_CLASS_2_POD_2_ZN_1_FLR_2 VAV BOX REHEAT COILDEMAND INLET NODE,MULT_CLASS_2_POD_2_ZN_1_FLR_2 VAV BOX REHEAT COILDEMAND OUTLET NODE
   Branch,22,HEATSYS1 DEMAND LOAD BRANCH 21,HEATSYS1,Plant Demand,CORNER_CLASS_1_POD_3_ZN_1_FLR_1 VAV BOX REHEAT COILDEMAND INLET NODE,CORNER_CLASS_1_POD_3_ZN_1_FLR_1 VAV BOX REHEAT COILDEMAND OUTLET NODE
   Branch,23,HEATSYS1 DEMAND LOAD BRANCH 22,HEATSYS1,Plant Demand,CORNER_CLASS_1_POD_3_ZN_1_FLR_2 VAV BOX REHEAT COILDEMAND INLET NODE,CORNER_CLASS_1_POD_3_ZN_1_FLR_2 VAV BOX REHEAT COILDEMAND OUTLET NODE
   Branch,24,HEATSYS1 DEMAND LOAD BRANCH 23,HEATSYS1,Plant Demand,MULT_CLASS_1_POD_3_ZN_1_FLR_1 VAV BOX REHEAT COILDEMAND INLET NODE,MULT_CLASS_1_POD_3_ZN_1_FLR_1 VAV BOX REHEAT COILDEMAND OUTLET NODE
   Branch,25,HEATSYS1 DEMAND LOAD BRANCH 24,HEATSYS1,Plant Demand,MULT_CLASS_1_POD_3_ZN_1_FLR_2 VAV BOX REHEAT COILDEMAND INLET NODE,MULT_CLASS_1_POD_3_ZN_1_FLR_2 VAV BOX REHEAT COILDEMAND OUTLET NODE
   Branch,26,HEATSYS1 DEMAND LOAD BRANCH 25,HEATSYS1,Plant Demand,CORRIDOR_POD_3_ZN_1_FLR_1 VAV BOX REHEAT COILDEMAND INLET NODE,CORRIDOR_POD_3_ZN_1_FLR_1 VAV BOX REHEAT COILDEMAND OUTLET NODE
   Branch,27,HEATSYS1 DEMAND LOAD BRANCH 26,HEATSYS1,Plant Demand,CORRIDOR_POD_3_ZN_1_FLR_2 VAV BOX REHEAT COILDEMAND INLET NODE,CORRIDOR_POD_3_ZN_1_FLR_2 VAV BOX REHEAT COILDEMAND OUTLET NODE
   Branch,28,HEATSYS1 DEMAND LOAD BRANCH 27,HEATSYS1,Plant Demand,CORNER_CLASS_2_POD_3_ZN_1_FLR_1 VAV BOX REHEAT COILDEMAND INLET NODE,CORNER_CLASS_2_POD_3_ZN_1_FLR_1 VAV BOX REHEAT COILDEMAND OUTLET NODE
   Branch,29,HEATSYS1 DEMAND LOAD BRANCH 28,HEATSYS1,Plant Demand,CORNER_CLASS_2_POD_3_ZN_1_FLR_2 VAV BOX REHEAT COILDEMAND INLET NODE,CORNER_CLASS_2_POD_3_ZN_1_FLR_2 VAV BOX REHEAT COILDEMAND OUTLET NODE
   Branch,30,HEATSYS1 DEMAND LOAD BRANCH 29,HEATSYS1,Plant Demand,MULT_CLASS_2_POD_3_ZN_1_FLR_1 VAV BOX REHEAT COILDEMAND INLET NODE,MULT_CLASS_2_POD_3_ZN_1_FLR_1 VAV BOX REHEAT COILDEMAND OUTLET NODE
   Branch,31,HEATSYS1 DEMAND LOAD BRANCH 30,HEATSYS1,Plant Demand,MULT_CLASS_2_POD_3_ZN_1_FLR_2 VAV BOX REHEAT COILDEMAND INLET NODE,MULT_CLASS_2_POD_3_ZN_1_FLR_2 VAV BOX REHEAT COILDEMAND OUTLET NODE
   Branch,32,HEATSYS1 DEMAND LOAD BRANCH 31,HEATSYS1,Plant Demand,MAIN_CORRIDOR_ZN_1_FLR_1 VAV BOX REHEAT COILDEMAND INLET NODE,MAIN_CORRIDOR_ZN_1_FLR_1 VAV BOX REHEAT COILDEMAND OUTLET NODE
   Branch,33,HEATSYS1 DEMAND LOAD BRANCH 32,HEATSYS1,Plant Demand,MAIN_CORRIDOR_ZN_1_FLR_2 VAV BOX REHEAT COILDEMAND INLET NODE,MAIN_CORRIDOR_ZN_1_FLR_2 VAV BOX REHEAT COILDEMAND OUTLET NODE
   Branch,34,HEATSYS1 DEMAND LOAD BRANCH 33,HEATSYS1,Plant Demand,LOBBY_ZN_1_FLR_1 VAV BOX REHEAT COILDEMAND INLET NODE,LOBBY_ZN_1_FLR_1 VAV BOX REHEAT COILDEMAND OUTLET NODE
   Branch,35,HEATSYS1 DEMAND LOAD BRANCH 34,HEATSYS1,Plant Demand,LOBBY_ZN_1_FLR_2 VAV BOX REHEAT COILDEMAND INLET NODE,LOBBY_ZN_1_FLR_2 VAV BOX REHEAT COILDEMAND OUTLET NODE
   Branch,36,HEATSYS1 DEMAND LOAD BRANCH 35,HEATSYS1,Plant Demand,BATHROOMS_ZN_1_FLR_1 VAV BOX REHEAT COILDEMAND INLET NODE,BATHROOMS_ZN_1_FLR_1 VAV BOX REHEAT COILDEMAND OUTLET NODE
   Branch,37,HEATSYS1 DEMAND LOAD BRANCH 36,HEATSYS1,Plant Demand,BATHROOMS_ZN_1_FLR_2 VAV BOX REHEAT COILDEMAND INLET NODE,BATHROOMS_ZN_1_FLR_2 VAV BOX REHEAT COILDEMAND OUTLET NODE
   Branch,38,HEATSYS1 DEMAND LOAD BRANCH 37,HEATSYS1,Plant Demand,OFFICES_ZN_1_FLR_1 VAV BOX REHEAT COILDEMAND INLET NODE,OFFICES_ZN_1_FLR_1 VAV BOX REHEAT COILDEMAND OUTLET NODE
   Branch,39,HEATSYS1 DEMAND LOAD BRANCH 38,HEATSYS1,Plant Demand,OFFICES_ZN_1_FLR_2 VAV BOX REHEAT COILDEMAND INLET NODE,OFFICES_ZN_1_FLR_2 VAV BOX REHEAT COILDEMAND OUTLET NODE
   Branch,40,HEATSYS1 DEMAND LOAD BRANCH 39,HEATSYS1,Plant Demand,LIBRARY_MEDIA_CENTER_ZN_1_FLR_2 VAV BOX REHEAT COILDEMAND INLET NODE,LIBRARY_MEDIA_CENTER_ZN_1_FLR_2 VAV BOX REHEAT COILDEMAND OUTLET NODE
   Branch,41,HEATSYS1 DEMAND LOAD BRANCH 40,HEATSYS1,Plant Demand,MECH_ZN_1_FLR_1 VAV BOX REHEAT COILDEMAND INLET NODE,MECH_ZN_1_FLR_1 VAV BOX REHEAT COILDEMAND OUTLET NODE
   Branch,42,HEATSYS1 DEMAND LOAD BRANCH 41,HEATSYS1,Plant Demand,MECH_ZN_1_FLR_2 VAV BOX REHEAT COILDEMAND INLET NODE,MECH_ZN_1_FLR_2 VAV BOX REHEAT COILDEMAND OUTLET NODE
   Branch,43,HEATSYS1 DEMAND LOAD BRANCH 42,HEATSYS1,Plant Demand,VAV_POD_1_HEATCDEMAND INLET NODE,VAV_POD_1_HEATCDEMAND OUTLET NODE
   Branch,44,HEATSYS1 DEMAND LOAD BRANCH 43,HEATSYS1,Plant Demand,VAV_POD_2_HEATCDEMAND INLET NODE,VAV_POD_2_HEATCDEMAND OUTLET NODE
   Branch,45,HEATSYS1 DEMAND LOAD BRANCH 44,HEATSYS1,Plant Demand,VAV_POD_3_HEATCDEMAND INLET NODE,VAV_POD_3_HEATCDEMAND OUTLET NODE
   Branch,46,HEATSYS1 DEMAND LOAD BRANCH 45,HEATSYS1,Plant Demand,VAV_OTHER_HEATCDEMAND INLET NODE,VAV_OTHER_HEATCDEMAND OUTLET NODE
   Branch,47,HEATSYS1 DEMAND BYPASS BRANCH,HEATSYS1,Plant Demand,HEATSYS1 DEMAND BYPASS PIPE INLET NODE,HEATSYS1 DEMAND BYPASS PIPE OUTLET NODE
   Branch,48,HEATSYS1 DEMAND OUTLET BRANCH,HEATSYS1,Plant Demand,HEATSYS1 DEMAND MIXER-HEATSYS1 DEMAND OUTLET PIPE,HEATSYS1 DEMAND OUTLET NODE
 Branch List,13,HEATSYS1 SUPPLY BRANCHES,HEATSYS1,Plant Supply,4
   Branch,1,HEATSYS1 SUPPLY INLET BRANCH,HEATSYS1,Plant Supply,HEATSYS1 SUPPLY INLET NODE,HEATSYS1 PUMP-HEATSYS1 BOILERNODEVIACONNECTOR
   Branch,2,HEATSYS1 SUPPLY EQUIPMENT BRANCH,HEATSYS1,Plant Supply,HEATSYS1 PUMP-HEATSYS1 BOILERNODE,HEATSYS1 SUPPLY EQUIPMENT OUTLET NODE
   Branch,3,HEATSYS1 SUPPLY EQUIPMENT BYPASS BRANCH,HEATSYS1,Plant Supply,HEATSYS1 SUPPLY EQUIP BYPASS INLET NODE,HEATSYS1 SUPPLY EQUIP BYPASS OUTLET NODE
   Branch,4,HEATSYS1 SUPPLY OUTLET BRANCH,HEATSYS1,Plant Supply,HEATSYS1 SUPPLY MIXER-HEATSYS1 SUPPLY OUTLET PIPE,HEATSYS1 SUPPLY OUTLET NODE
 Branch List,14,SWHSYS1 DEMAND BRANCHES,SWHSYS1,Plant Demand,7
   Branch,1,SWHSYS1 DEMAND INLET BRANCH,SWHSYS1,Plant Demand,SWHSYS1 DEMAND INLET NODE,SWHSYS1 DEMAND INLET PIPE-SWHSYS1 DEMAND MIXER
   Branch,2,SWHSYS1 DEMAND LOAD BRANCH 1,SWHSYS1,Plant Demand,BATHROOMS_ZN_1_FLR_1 SHW_DEFAULT WATER INLET NODE,BATHROOMS_ZN_1_FLR_1 SHW_DEFAULT WATER OUTLET NODE
   Branch,3,SWHSYS1 DEMAND LOAD BRANCH 2,SWHSYS1,Plant Demand,BATHROOMS_ZN_1_FLR_2 SHW_DEFAULT WATER INLET NODE,BATHROOMS_ZN_1_FLR_2 SHW_DEFAULT WATER OUTLET NODE
   Branch,4,SWHSYS1 DEMAND LOAD BRANCH 3,SWHSYS1,Plant Demand,GYM_ZN_1_FLR_1 SHW_DEFAULT WATER INLET NODE,GYM_ZN_1_FLR_1 SHW_DEFAULT WATER OUTLET NODE
   Branch,5,SWHSYS1 DEMAND LOAD BRANCH 4,SWHSYS1,Plant Demand,KITCHEN_ZN_1_FLR_1 SHW_DEFAULT WATER INLET NODE,KITCHEN_ZN_1_FLR_1 SHW_DEFAULT WATER OUTLET NODE
   Branch,6,SWHSYS1 DEMAND BYPASS BRANCH,SWHSYS1,Plant Demand,SWHSYS1 DEMAND BYPASS PIPE INLET NODE,SWHSYS1 DEMAND BYPASS PIPE OUTLET NODE
   Branch,7,SWHSYS1 DEMAND OUTLET BRANCH,SWHSYS1,Plant Demand,SWHSYS1 DEMAND MIXER-SWHSYS1 DEMAND OUTLET PIPE,SWHSYS1 DEMAND OUTLET NODE
 Branch List,15,SWHSYS1 SUPPLY BRANCHES,SWHSYS1,Plant Supply,4
   Branch,1,SWHSYS1 SUPPLY INLET BRANCH,SWHSYS1,Plant Supply,SWHSYS1 SUPPLY INLET NODE,SWHSYS1 PUMP-SWHSYS1 WATER HEATERNODEVIACONNECTOR
   Branch,2,SWHSYS1 SUPPLY EQUIPMENT BRANCH,SWHSYS1,Plant Supply,SWHSYS1 PUMP-SWHSYS1 WATER HEATERNODE,SWHSYS1 SUPPLY EQUIPMENT OUTLET NODE
   Branch,3,SWHSYS1 SUPPLY EQUIPMENT BYPASS BRANCH,SWHSYS1,Plant Supply,SWHSYS1 SUPPLY EQUIP BYPASS INLET NODE,SWHSYS1 SUPPLY EQUIP BYPASS OUTLET NODE
   Branch,4,SWHSYS1 SUPPLY OUTLET BRANCH,SWHSYS1,Plant Supply,SWHSYS1 SUPPLY MIXER-SWHSYS1 SUPPLY OUTLET PIPE,SWHSYS1 SUPPLY OUTLET NODE
! ===============================================================
! <#Supply Air Paths>,<Number of Supply Air Paths>
 #Supply Air Paths,9
! <Supply Air Path>,<Supply Air Path Count>,<Supply Air Path Name>,<AirLoopHVAC Name>
! <#Components on Supply Air Path>,<Number of Components>
! <Supply Air Path Component>,<Component Count>,<Component Type>,<Component Name>,<AirLoopHVAC Name>
! <#Outlet Nodes on Supply Air Path Component>,<Number of Nodes>
! <Supply Air Path Component Nodes>,<Node Count>,<Component Type>,<Component Name>,<Inlet Node Name>,<Outlet Node Name>,<AirLoopHVAC Name>
 Supply Air Path,1,PSZ-AC_1:5,PSZ-AC_1:5
   #Components on Supply Air Path,1
   Supply Air Path Component,1,AIRLOOPHVAC:ZONESPLITTER,PSZ-AC_1:5 SUPPLY AIR SPLITTER,PSZ-AC_1:5
     #Outlet Nodes on Supply Air Path Component,1
     Supply Air Path Component Nodes,1,AIRLOOPHVAC:ZONESPLITTER,PSZ-AC_1:5 SUPPLY AIR SPLITTER,PSZ-AC_1:5 ZONE EQUIPMENT INLET NODE,GYM_ZN_1_FLR_1 DIRECT AIR INLET NODE NAME,PSZ-AC_1:5
! <#Nodes on Supply Air Path>,<Number of Nodes>
! <Supply Air Path Node>,<Node Type>,<Node Count>,<Node Name>,<AirLoopHVAC Name>
#Nodes on Supply Air Path,2
   Supply Air Path Node,Inlet Node,1,PSZ-AC_1:5 ZONE EQUIPMENT INLET NODE,PSZ-AC_1:5
   Supply Air Path Node,Outlet Node,2,GYM_ZN_1_FLR_1 DIRECT AIR INLET NODE NAME,PSZ-AC_1:5
 Supply Air Path,2,PSZ-AC_2:6,PSZ-AC_2:6
   #Components on Supply Air Path,1
   Supply Air Path Component,1,AIRLOOPHVAC:ZONESPLITTER,PSZ-AC_2:6 SUPPLY AIR SPLITTER,PSZ-AC_2:6
     #Outlet Nodes on Supply Air Path Component,1
     Supply Air Path Component Nodes,1,AIRLOOPHVAC:ZONESPLITTER,PSZ-AC_2:6 SUPPLY AIR SPLITTER,PSZ-AC_2:6 ZONE EQUIPMENT INLET NODE,AUX_GYM_ZN_1_FLR_1 DIRECT AIR INLET NODE NAME,PSZ-AC_2:6
! <#Nodes on Supply Air Path>,<Number of Nodes>
! <Supply Air Path Node>,<Node Type>,<Node Count>,<Node Name>,<AirLoopHVAC Name>
#Nodes on Supply Air Path,2
   Supply Air Path Node,Inlet Node,1,PSZ-AC_2:6 ZONE EQUIPMENT INLET NODE,PSZ-AC_2:6
   Supply Air Path Node,Outlet Node,2,AUX_GYM_ZN_1_FLR_1 DIRECT AIR INLET NODE NAME,PSZ-AC_2:6
 Supply Air Path,3,PSZ-AC_3:7,PSZ-AC_3:7
   #Components on Supply Air Path,1
   Supply Air Path Component,1,AIRLOOPHVAC:ZONESPLITTER,PSZ-AC_3:7 SUPPLY AIR SPLITTER,PSZ-AC_3:7
     #Outlet Nodes on Supply Air Path Component,1
     Supply Air Path Component Nodes,1,AIRLOOPHVAC:ZONESPLITTER,PSZ-AC_3:7 SUPPLY AIR SPLITTER,PSZ-AC_3:7 ZONE EQUIPMENT INLET NODE,AUDITORIUM_ZN_1_FLR_1 DIRECT AIR INLET NODE NAME,PSZ-AC_3:7
! <#Nodes on Supply Air Path>,<Number of Nodes>
! <Supply Air Path Node>,<Node Type>,<Node Count>,<Node Name>,<AirLoopHVAC Name>
#Nodes on Supply Air Path,2
   Supply Air Path Node,Inlet Node,1,PSZ-AC_3:7 ZONE EQUIPMENT INLET NODE,PSZ-AC_3:7
   Supply Air Path Node,Outlet Node,2,AUDITORIUM_ZN_1_FLR_1 DIRECT AIR INLET NODE NAME,PSZ-AC_3:7
 Supply Air Path,4,PSZ-AC_4:8,PSZ-AC_4:8
   #Components on Supply Air Path,1
   Supply Air Path Component,1,AIRLOOPHVAC:ZONESPLITTER,PSZ-AC_4:8 SUPPLY AIR SPLITTER,PSZ-AC_4:8
     #Outlet Nodes on Supply Air Path Component,1
     Supply Air Path Component Nodes,1,AIRLOOPHVAC:ZONESPLITTER,PSZ-AC_4:8 SUPPLY AIR SPLITTER,PSZ-AC_4:8 ZONE EQUIPMENT INLET NODE,KITCHEN_ZN_1_FLR_1 DIRECT AIR INLET NODE NAME,PSZ-AC_4:8
! <#Nodes on Supply Air Path>,<Number of Nodes>
! <Supply Air Path Node>,<Node Type>,<Node Count>,<Node Name>,<AirLoopHVAC Name>
#Nodes on Supply Air Path,2
   Supply Air Path Node,Inlet Node,1,PSZ-AC_4:8 ZONE EQUIPMENT INLET NODE,PSZ-AC_4:8
   Supply Air Path Node,Outlet Node,2,KITCHEN_ZN_1_FLR_1 DIRECT AIR INLET NODE NAME,PSZ-AC_4:8
 Supply Air Path,5,PSZ-AC_5:9,PSZ-AC_5:9
   #Components on Supply Air Path,1
   Supply Air Path Component,1,AIRLOOPHVAC:ZONESPLITTER,PSZ-AC_5:9 SUPPLY AIR SPLITTER,PSZ-AC_5:9
     #Outlet Nodes on Supply Air Path Component,1
     Supply Air Path Component Nodes,1,AIRLOOPHVAC:ZONESPLITTER,PSZ-AC_5:9 SUPPLY AIR SPLITTER,PSZ-AC_5:9 ZONE EQUIPMENT INLET NODE,CAFETERIA_ZN_1_FLR_1 DIRECT AIR INLET NODE NAME,PSZ-AC_5:9
! <#Nodes on Supply Air Path>,<Number of Nodes>
! <Supply Air Path Node>,<Node Type>,<Node Count>,<Node Name>,<AirLoopHVAC Name>
#Nodes on Supply Air Path,2
   Supply Air Path Node,Inlet Node,1,PSZ-AC_5:9 ZONE EQUIPMENT INLET NODE,PSZ-AC_5:9
   Supply Air Path Node,Outlet Node,2,CAFETERIA_ZN_1_FLR_1 DIRECT AIR INLET NODE NAME,PSZ-AC_5:9
 Supply Air Path,6,VAV_OTHER,VAV_OTHER
   #Components on Supply Air Path,1
   Supply Air Path Component,1,AIRLOOPHVAC:ZONESPLITTER,VAV_OTHER SUPPLY AIR SPLITTER,VAV_OTHER
     #Outlet Nodes on Supply Air Path Component,11
     Supply Air Path Component Nodes,1,AIRLOOPHVAC:ZONESPLITTER,VAV_OTHER SUPPLY AIR SPLITTER,VAV_OTHER ZONE EQUIPMENT INLET NODE,MAIN_CORRIDOR_ZN_1_FLR_1 VAV BOX INLET NODE NAME,VAV_OTHER
     Supply Air Path Component Nodes,2,AIRLOOPHVAC:ZONESPLITTER,VAV_OTHER SUPPLY AIR SPLITTER,VAV_OTHER ZONE EQUIPMENT INLET NODE,MAIN_CORRIDOR_ZN_1_FLR_2 VAV BOX INLET NODE NAME,VAV_OTHER
     Supply Air Path Component Nodes,3,AIRLOOPHVAC:ZONESPLITTER,VAV_OTHER SUPPLY AIR SPLITTER,VAV_OTHER ZONE EQUIPMENT INLET NODE,LOBBY_ZN_1_FLR_1 VAV BOX INLET NODE NAME,VAV_OTHER
     Supply Air Path Component Nodes,4,AIRLOOPHVAC:ZONESPLITTER,VAV_OTHER SUPPLY AIR SPLITTER,VAV_OTHER ZONE EQUIPMENT INLET NODE,LOBBY_ZN_1_FLR_2 VAV BOX INLET NODE NAME,VAV_OTHER
     Supply Air Path Component Nodes,5,AIRLOOPHVAC:ZONESPLITTER,VAV_OTHER SUPPLY AIR SPLITTER,VAV_OTHER ZONE EQUIPMENT INLET NODE,BATHROOMS_ZN_1_FLR_1 VAV BOX INLET NODE NAME,VAV_OTHER
     Supply Air Path Component Nodes,6,AIRLOOPHVAC:ZONESPLITTER,VAV_OTHER SUPPLY AIR SPLITTER,VAV_OTHER ZONE EQUIPMENT INLET NODE,BATHROOMS_ZN_1_FLR_2 VAV BOX INLET NODE NAME,VAV_OTHER
     Supply Air Path Component Nodes,7,AIRLOOPHVAC:ZONESPLITTER,VAV_OTHER SUPPLY AIR SPLITTER,VAV_OTHER ZONE EQUIPMENT INLET NODE,OFFICES_ZN_1_FLR_1 VAV BOX INLET NODE NAME,VAV_OTHER
     Supply Air Path Component Nodes,8,AIRLOOPHVAC:ZONESPLITTER,VAV_OTHER SUPPLY AIR SPLITTER,VAV_OTHER ZONE EQUIPMENT INLET NODE,OFFICES_ZN_1_FLR_2 VAV BOX INLET NODE NAME,VAV_OTHER
     Supply Air Path Component Nodes,9,AIRLOOPHVAC:ZONESPLITTER,VAV_OTHER SUPPLY AIR SPLITTER,VAV_OTHER ZONE EQUIPMENT INLET NODE,LIBRARY_MEDIA_CENTER_ZN_1_FLR_2 VAV BOX INLET NODE NAME,VAV_OTHER
     Supply Air Path Component Nodes,10,AIRLOOPHVAC:ZONESPLITTER,VAV_OTHER SUPPLY AIR SPLITTER,VAV_OTHER ZONE EQUIPMENT INLET NODE,MECH_ZN_1_FLR_1 VAV BOX INLET NODE NAME,VAV_OTHER
     Supply Air Path Component Nodes,11,AIRLOOPHVAC:ZONESPLITTER,VAV_OTHER SUPPLY AIR SPLITTER,VAV_OTHER ZONE EQUIPMENT INLET NODE,MECH_ZN_1_FLR_2 VAV BOX INLET NODE NAME,VAV_OTHER
! <#Nodes on Supply Air Path>,<Number of Nodes>
! <Supply Air Path Node>,<Node Type>,<Node Count>,<Node Name>,<AirLoopHVAC Name>
#Nodes on Supply Air Path,12
   Supply Air Path Node,Inlet Node,1,VAV_OTHER ZONE EQUIPMENT INLET NODE,VAV_OTHER
   Supply Air Path Node,Outlet Node,2,MAIN_CORRIDOR_ZN_1_FLR_1 VAV BOX INLET NODE NAME,VAV_OTHER
   Supply Air Path Node,Outlet Node,3,MAIN_CORRIDOR_ZN_1_FLR_2 VAV BOX INLET NODE NAME,VAV_OTHER
   Supply Air Path Node,Outlet Node,4,LOBBY_ZN_1_FLR_1 VAV BOX INLET NODE NAME,VAV_OTHER
   Supply Air Path Node,Outlet Node,5,LOBBY_ZN_1_FLR_2 VAV BOX INLET NODE NAME,VAV_OTHER
   Supply Air Path Node,Outlet Node,6,BATHROOMS_ZN_1_FLR_1 VAV BOX INLET NODE NAME,VAV_OTHER
   Supply Air Path Node,Outlet Node,7,BATHROOMS_ZN_1_FLR_2 VAV BOX INLET NODE NAME,VAV_OTHER
   Supply Air Path Node,Outlet Node,8,OFFICES_ZN_1_FLR_1 VAV BOX INLET NODE NAME,VAV_OTHER
   Supply Air Path Node,Outlet Node,9,OFFICES_ZN_1_FLR_2 VAV BOX INLET NODE NAME,VAV_OTHER
   Supply Air Path Node,Outlet Node,10,LIBRARY_MEDIA_CENTER_ZN_1_FLR_2 VAV BOX INLET NODE NAME,VAV_OTHER
   Supply Air Path Node,Outlet Node,11,MECH_ZN_1_FLR_1 VAV BOX INLET NODE NAME,VAV_OTHER
   Supply Air Path Node,Outlet Node,12,MECH_ZN_1_FLR_2 VAV BOX INLET NODE NAME,VAV_OTHER
 Supply Air Path,7,VAV_POD_1,VAV_POD_1
   #Components on Supply Air Path,1
   Supply Air Path Component,1,AIRLOOPHVAC:ZONESPLITTER,VAV_POD_1 SUPPLY AIR SPLITTER,VAV_POD_1
     #Outlet Nodes on Supply Air Path Component,10
     Supply Air Path Component Nodes,1,AIRLOOPHVAC:ZONESPLITTER,VAV_POD_1 SUPPLY AIR SPLITTER,VAV_POD_1 ZONE EQUIPMENT INLET NODE,CORNER_CLASS_1_POD_1_ZN_1_FLR_1 VAV BOX INLET NODE NAME,VAV_POD_1
     Supply Air Path Component Nodes,2,AIRLOOPHVAC:ZONESPLITTER,VAV_POD_1 SUPPLY AIR SPLITTER,VAV_POD_1 ZONE EQUIPMENT INLET NODE,CORNER_CLASS_1_POD_1_ZN_1_FLR_2 VAV BOX INLET NODE NAME,VAV_POD_1
     Supply Air Path Component Nodes,3,AIRLOOPHVAC:ZONESPLITTER,VAV_POD_1 SUPPLY AIR SPLITTER,VAV_POD_1 ZONE EQUIPMENT INLET NODE,MULT_CLASS_1_POD_1_ZN_1_FLR_1 VAV BOX INLET NODE NAME,VAV_POD_1
     Supply Air Path Component Nodes,4,AIRLOOPHVAC:ZONESPLITTER,VAV_POD_1 SUPPLY AIR SPLITTER,VAV_POD_1 ZONE EQUIPMENT INLET NODE,MULT_CLASS_1_POD_1_ZN_1_FLR_2 VAV BOX INLET NODE NAME,VAV_POD_1
     Supply Air Path Component Nodes,5,AIRLOOPHVAC:ZONESPLITTER,VAV_POD_1 SUPPLY AIR SPLITTER,VAV_POD_1 ZONE EQUIPMENT INLET NODE,CORRIDOR_POD_1_ZN_1_FLR_1 VAV BOX INLET NODE NAME,VAV_POD_1
     Supply Air Path Component Nodes,6,AIRLOOPHVAC:ZONESPLITTER,VAV_POD_1 SUPPLY AIR SPLITTER,VAV_POD_1 ZONE EQUIPMENT INLET NODE,CORRIDOR_POD_1_ZN_1_FLR_2 VAV BOX INLET NODE NAME,VAV_POD_1
     Supply Air Path Component Nodes,7,AIRLOOPHVAC:ZONESPLITTER,VAV_POD_1 SUPPLY AIR SPLITTER,VAV_POD_1 ZONE EQUIPMENT INLET NODE,CORNER_CLASS_2_POD_1_ZN_1_FLR_1 VAV BOX INLET NODE NAME,VAV_POD_1
     Supply Air Path Component Nodes,8,AIRLOOPHVAC:ZONESPLITTER,VAV_POD_1 SUPPLY AIR SPLITTER,VAV_POD_1 ZONE EQUIPMENT INLET NODE,CORNER_CLASS_2_POD_1_ZN_1_FLR_2 VAV BOX INLET NODE NAME,VAV_POD_1
     Supply Air Path Component Nodes,9,AIRLOOPHVAC:ZONESPLITTER,VAV_POD_1 SUPPLY AIR SPLITTER,VAV_POD_1 ZONE EQUIPMENT INLET NODE,MULT_CLASS_2_POD_1_ZN_1_FLR_1 VAV BOX INLET NODE NAME,VAV_POD_1
     Supply Air Path Component Nodes,10,AIRLOOPHVAC:ZONESPLITTER,VAV_POD_1 SUPPLY AIR SPLITTER,VAV_POD_1 ZONE EQUIPMENT INLET NODE,MULT_CLASS_2_POD_1_ZN_1_FLR_2 VAV BOX INLET NODE NAME,VAV_POD_1
! <#Nodes on Supply Air Path>,<Number of Nodes>
! <Supply Air Path Node>,<Node Type>,<Node Count>,<Node Name>,<AirLoopHVAC Name>
#Nodes on Supply Air Path,11
   Supply Air Path Node,Inlet Node,1,VAV_POD_1 ZONE EQUIPMENT INLET NODE,VAV_POD_1
   Supply Air Path Node,Outlet Node,2,CORNER_CLASS_1_POD_1_ZN_1_FLR_1 VAV BOX INLET NODE NAME,VAV_POD_1
   Supply Air Path Node,Outlet Node,3,CORNER_CLASS_1_POD_1_ZN_1_FLR_2 VAV BOX INLET NODE NAME,VAV_POD_1
   Supply Air Path Node,Outlet Node,4,MULT_CLASS_1_POD_1_ZN_1_FLR_1 VAV BOX INLET NODE NAME,VAV_POD_1
   Supply Air Path Node,Outlet Node,5,MULT_CLASS_1_POD_1_ZN_1_FLR_2 VAV BOX INLET NODE NAME,VAV_POD_1
   Supply Air Path Node,Outlet Node,6,CORRIDOR_POD_1_ZN_1_FLR_1 VAV BOX INLET NODE NAME,VAV_POD_1
   Supply Air Path Node,Outlet Node,7,CORRIDOR_POD_1_ZN_1_FLR_2 VAV BOX INLET NODE NAME,VAV_POD_1
   Supply Air Path Node,Outlet Node,8,CORNER_CLASS_2_POD_1_ZN_1_FLR_1 VAV BOX INLET NODE NAME,VAV_POD_1
   Supply Air Path Node,Outlet Node,9,CORNER_CLASS_2_POD_1_ZN_1_FLR_2 VAV BOX INLET NODE NAME,VAV_POD_1
   Supply Air Path Node,Outlet Node,10,MULT_CLASS_2_POD_1_ZN_1_FLR_1 VAV BOX INLET NODE NAME,VAV_POD_1
   Supply Air Path Node,Outlet Node,11,MULT_CLASS_2_POD_1_ZN_1_FLR_2 VAV BOX INLET NODE NAME,VAV_POD_1
 Supply Air Path,8,VAV_POD_2,VAV_POD_2
   #Components on Supply Air Path,1
   Supply Air Path Component,1,AIRLOOPHVAC:ZONESPLITTER,VAV_POD_2 SUPPLY AIR SPLITTER,VAV_POD_2
     #Outlet Nodes on Supply Air Path Component,10
     Supply Air Path Component Nodes,1,AIRLOOPHVAC:ZONESPLITTER,VAV_POD_2 SUPPLY AIR SPLITTER,VAV_POD_2 ZONE EQUIPMENT INLET NODE,CORNER_CLASS_1_POD_2_ZN_1_FLR_1 VAV BOX INLET NODE NAME,VAV_POD_2
     Supply Air Path Component Nodes,2,AIRLOOPHVAC:ZONESPLITTER,VAV_POD_2 SUPPLY AIR SPLITTER,VAV_POD_2 ZONE EQUIPMENT INLET NODE,CORNER_CLASS_1_POD_2_ZN_1_FLR_2 VAV BOX INLET NODE NAME,VAV_POD_2
     Supply Air Path Component Nodes,3,AIRLOOPHVAC:ZONESPLITTER,VAV_POD_2 SUPPLY AIR SPLITTER,VAV_POD_2 ZONE EQUIPMENT INLET NODE,MULT_CLASS_1_POD_2_ZN_1_FLR_1 VAV BOX INLET NODE NAME,VAV_POD_2
     Supply Air Path Component Nodes,4,AIRLOOPHVAC:ZONESPLITTER,VAV_POD_2 SUPPLY AIR SPLITTER,VAV_POD_2 ZONE EQUIPMENT INLET NODE,MULT_CLASS_1_POD_2_ZN_1_FLR_2 VAV BOX INLET NODE NAME,VAV_POD_2
     Supply Air Path Component Nodes,5,AIRLOOPHVAC:ZONESPLITTER,VAV_POD_2 SUPPLY AIR SPLITTER,VAV_POD_2 ZONE EQUIPMENT INLET NODE,CORRIDOR_POD_2_ZN_1_FLR_1 VAV BOX INLET NODE NAME,VAV_POD_2
     Supply Air Path Component Nodes,6,AIRLOOPHVAC:ZONESPLITTER,VAV_POD_2 SUPPLY AIR SPLITTER,VAV_POD_2 ZONE EQUIPMENT INLET NODE,CORRIDOR_POD_2_ZN_1_FLR_2 VAV BOX INLET NODE NAME,VAV_POD_2
     Supply Air Path Component Nodes,7,AIRLOOPHVAC:ZONESPLITTER,VAV_POD_2 SUPPLY AIR SPLITTER,VAV_POD_2 ZONE EQUIPMENT INLET NODE,CORNER_CLASS_2_POD_2_ZN_1_FLR_1 VAV BOX INLET NODE NAME,VAV_POD_2
     Supply Air Path Component Nodes,8,AIRLOOPHVAC:ZONESPLITTER,VAV_POD_2 SUPPLY AIR SPLITTER,VAV_POD_2 ZONE EQUIPMENT INLET NODE,CORNER_CLASS_2_POD_2_ZN_1_FLR_2 VAV BOX INLET NODE NAME,VAV_POD_2
     Supply Air Path Component Nodes,9,AIRLOOPHVAC:ZONESPLITTER,VAV_POD_2 SUPPLY AIR SPLITTER,VAV_POD_2 ZONE EQUIPMENT INLET NODE,MULT_CLASS_2_POD_2_ZN_1_FLR_1 VAV BOX INLET NODE NAME,VAV_POD_2
     Supply Air Path Component Nodes,10,AIRLOOPHVAC:ZONESPLITTER,VAV_POD_2 SUPPLY AIR SPLITTER,VAV_POD_2 ZONE EQUIPMENT INLET NODE,MULT_CLASS_2_POD_2_ZN_1_FLR_2 VAV BOX INLET NODE NAME,VAV_POD_2
! <#Nodes on Supply Air Path>,<Number of Nodes>
! <Supply Air Path Node>,<Node Type>,<Node Count>,<Node Name>,<AirLoopHVAC Name>
#Nodes on Supply Air Path,11
   Supply Air Path Node,Inlet Node,1,VAV_POD_2 ZONE EQUIPMENT INLET NODE,VAV_POD_2
   Supply Air Path Node,Outlet Node,2,CORNER_CLASS_1_POD_2_ZN_1_FLR_1 VAV BOX INLET NODE NAME,VAV_POD_2
   Supply Air Path Node,Outlet Node,3,CORNER_CLASS_1_POD_2_ZN_1_FLR_2 VAV BOX INLET NODE NAME,VAV_POD_2
   Supply Air Path Node,Outlet Node,4,MULT_CLASS_1_POD_2_ZN_1_FLR_1 VAV BOX INLET NODE NAME,VAV_POD_2
   Supply Air Path Node,Outlet Node,5,MULT_CLASS_1_POD_2_ZN_1_FLR_2 VAV BOX INLET NODE NAME,VAV_POD_2
   Supply Air Path Node,Outlet Node,6,CORRIDOR_POD_2_ZN_1_FLR_1 VAV BOX INLET NODE NAME,VAV_POD_2
   Supply Air Path Node,Outlet Node,7,CORRIDOR_POD_2_ZN_1_FLR_2 VAV BOX INLET NODE NAME,VAV_POD_2
   Supply Air Path Node,Outlet Node,8,CORNER_CLASS_2_POD_2_ZN_1_FLR_1 VAV BOX INLET NODE NAME,VAV_POD_2
   Supply Air Path Node,Outlet Node,9,CORNER_CLASS_2_POD_2_ZN_1_FLR_2 VAV BOX INLET NODE NAME,VAV_POD_2
   Supply Air Path Node,Outlet Node,10,MULT_CLASS_2_POD_2_ZN_1_FLR_1 VAV BOX INLET NODE NAME,VAV_POD_2
   Supply Air Path Node,Outlet Node,11,MULT_CLASS_2_POD_2_ZN_1_FLR_2 VAV BOX INLET NODE NAME,VAV_POD_2
 Supply Air Path,9,VAV_POD_3,VAV_POD_3
   #Components on Supply Air Path,1
   Supply Air Path Component,1,AIRLOOPHVAC:ZONESPLITTER,VAV_POD_3 SUPPLY AIR SPLITTER,VAV_POD_3
     #Outlet Nodes on Supply Air Path Component,10
     Supply Air Path Component Nodes,1,AIRLOOPHVAC:ZONESPLITTER,VAV_POD_3 SUPPLY AIR SPLITTER,VAV_POD_3 ZONE EQUIPMENT INLET NODE,CORNER_CLASS_1_POD_3_ZN_1_FLR_1 VAV BOX INLET NODE NAME,VAV_POD_3
     Supply Air Path Component Nodes,2,AIRLOOPHVAC:ZONESPLITTER,VAV_POD_3 SUPPLY AIR SPLITTER,VAV_POD_3 ZONE EQUIPMENT INLET NODE,CORNER_CLASS_1_POD_3_ZN_1_FLR_2 VAV BOX INLET NODE NAME,VAV_POD_3
     Supply Air Path Component Nodes,3,AIRLOOPHVAC:ZONESPLITTER,VAV_POD_3 SUPPLY AIR SPLITTER,VAV_POD_3 ZONE EQUIPMENT INLET NODE,MULT_CLASS_1_POD_3_ZN_1_FLR_1 VAV BOX INLET NODE NAME,VAV_POD_3
     Supply Air Path Component Nodes,4,AIRLOOPHVAC:ZONESPLITTER,VAV_POD_3 SUPPLY AIR SPLITTER,VAV_POD_3 ZONE EQUIPMENT INLET NODE,MULT_CLASS_1_POD_3_ZN_1_FLR_2 VAV BOX INLET NODE NAME,VAV_POD_3
     Supply Air Path Component Nodes,5,AIRLOOPHVAC:ZONESPLITTER,VAV_POD_3 SUPPLY AIR SPLITTER,VAV_POD_3 ZONE EQUIPMENT INLET NODE,CORRIDOR_POD_3_ZN_1_FLR_1 VAV BOX INLET NODE NAME,VAV_POD_3
     Supply Air Path Component Nodes,6,AIRLOOPHVAC:ZONESPLITTER,VAV_POD_3 SUPPLY AIR SPLITTER,VAV_POD_3 ZONE EQUIPMENT INLET NODE,CORRIDOR_POD_3_ZN_1_FLR_2 VAV BOX INLET NODE NAME,VAV_POD_3
     Supply Air Path Component Nodes,7,AIRLOOPHVAC:ZONESPLITTER,VAV_POD_3 SUPPLY AIR SPLITTER,VAV_POD_3 ZONE EQUIPMENT INLET NODE,CORNER_CLASS_2_POD_3_ZN_1_FLR_1 VAV BOX INLET NODE NAME,VAV_POD_3
     Supply Air Path Component Nodes,8,AIRLOOPHVAC:ZONESPLITTER,VAV_POD_3 SUPPLY AIR SPLITTER,VAV_POD_3 ZONE EQUIPMENT INLET NODE,CORNER_CLASS_2_POD_3_ZN_1_FLR_2 VAV BOX INLET NODE NAME,VAV_POD_3
     Supply Air Path Component Nodes,9,AIRLOOPHVAC:ZONESPLITTER,VAV_POD_3 SUPPLY AIR SPLITTER,VAV_POD_3 ZONE EQUIPMENT INLET NODE,MULT_CLASS_2_POD_3_ZN_1_FLR_1 VAV BOX INLET NODE NAME,VAV_POD_3
     Supply Air Path Component Nodes,10,AIRLOOPHVAC:ZONESPLITTER,VAV_POD_3 SUPPLY AIR SPLITTER,VAV_POD_3 ZONE EQUIPMENT INLET NODE,MULT_CLASS_2_POD_3_ZN_1_FLR_2 VAV BOX INLET NODE NAME,VAV_POD_3
! <#Nodes on Supply Air Path>,<Number of Nodes>
! <Supply Air Path Node>,<Node Type>,<Node Count>,<Node Name>,<AirLoopHVAC Name>
#Nodes on Supply Air Path,11
   Supply Air Path Node,Inlet Node,1,VAV_POD_3 ZONE EQUIPMENT INLET NODE,VAV_POD_3
   Supply Air Path Node,Outlet Node,2,CORNER_CLASS_1_POD_3_ZN_1_FLR_1 VAV BOX INLET NODE NAME,VAV_POD_3
   Supply Air Path Node,Outlet Node,3,CORNER_CLASS_1_POD_3_ZN_1_FLR_2 VAV BOX INLET NODE NAME,VAV_POD_3
   Supply Air Path Node,Outlet Node,4,MULT_CLASS_1_POD_3_ZN_1_FLR_1 VAV BOX INLET NODE NAME,VAV_POD_3
   Supply Air Path Node,Outlet Node,5,MULT_CLASS_1_POD_3_ZN_1_FLR_2 VAV BOX INLET NODE NAME,VAV_POD_3
   Supply Air Path Node,Outlet Node,6,CORRIDOR_POD_3_ZN_1_FLR_1 VAV BOX INLET NODE NAME,VAV_POD_3
   Supply Air Path Node,Outlet Node,7,CORRIDOR_POD_3_ZN_1_FLR_2 VAV BOX INLET NODE NAME,VAV_POD_3
   Supply Air Path Node,Outlet Node,8,CORNER_CLASS_2_POD_3_ZN_1_FLR_1 VAV BOX INLET NODE NAME,VAV_POD_3
   Supply Air Path Node,Outlet Node,9,CORNER_CLASS_2_POD_3_ZN_1_FLR_2 VAV BOX INLET NODE NAME,VAV_POD_3
   Supply Air Path Node,Outlet Node,10,MULT_CLASS_2_POD_3_ZN_1_FLR_1 VAV BOX INLET NODE NAME,VAV_POD_3
   Supply Air Path Node,Outlet Node,11,MULT_CLASS_2_POD_3_ZN_1_FLR_2 VAV BOX INLET NODE NAME,VAV_POD_3
! ===============================================================
! <#Return Air Paths>,<Number of Return Air Paths>
 #Return Air Paths,9
! <Return Air Path>,<Return Air Path Count>,<Return Air Path Name>,<AirLoopHVAC Name>
! <#Components on Return Air Path>,<Number of Components>
! <Return Air Path Component>,<Component Count>,<Component Type>,<Component Name>,<AirLoopHVAC Name>
! <#Inlet Nodes on Return Air Path Component>,<Number of Nodes>
! <Return Air Path Component Nodes>,<Node Count>,<Component Type>,<Component Name>,<Inlet Node Name>,<Outlet Node Name>,<AirLoopHVAC Name>
 Return Air Path,1,PSZ-AC_1:5 RETURN AIR PATH,PSZ-AC_1:5
   #Components on Return Air Path,1
   Return Air Path Component,1,AIRLOOPHVAC:ZONEMIXER,PSZ-AC_1:5 RETURN AIR MIXER,PSZ-AC_1:5
     #Inlet Nodes on Return Air Path Component,1
     Return Air Path Component Nodes,1,AIRLOOPHVAC:ZONEMIXER,PSZ-AC_1:5 RETURN AIR MIXER,GYM_ZN_1_FLR_1 RETURN AIR NODE NAME,PSZ-AC_1:5 ZONE EQUIPMENT OUTLET NODE,PSZ-AC_1:5
! <#Nodes on Return Air Path>,<Number of Nodes>
! <Return Air Path Node>,<Node Type>,<Node Count>,<Node Name>,<AirLoopHVAC Name>
   #Nodes on Return Air Path,2
   Return Air Path Node,Outlet Node,1,PSZ-AC_1:5 ZONE EQUIPMENT OUTLET NODE,PSZ-AC_1:5
   Return Air Path Node,Inlet Node,2,GYM_ZN_1_FLR_1 RETURN AIR NODE NAME,PSZ-AC_1:5
 Return Air Path,2,PSZ-AC_2:6 RETURN AIR PATH,PSZ-AC_2:6
   #Components on Return Air Path,1
   Return Air Path Component,1,AIRLOOPHVAC:ZONEMIXER,PSZ-AC_2:6 RETURN AIR MIXER,PSZ-AC_2:6
     #Inlet Nodes on Return Air Path Component,1
     Return Air Path Component Nodes,1,AIRLOOPHVAC:ZONEMIXER,PSZ-AC_2:6 RETURN AIR MIXER,AUX_GYM_ZN_1_FLR_1 RETURN AIR NODE NAME,PSZ-AC_2:6 ZONE EQUIPMENT OUTLET NODE,PSZ-AC_2:6
! <#Nodes on Return Air Path>,<Number of Nodes>
! <Return Air Path Node>,<Node Type>,<Node Count>,<Node Name>,<AirLoopHVAC Name>
   #Nodes on Return Air Path,2
   Return Air Path Node,Outlet Node,1,PSZ-AC_2:6 ZONE EQUIPMENT OUTLET NODE,PSZ-AC_2:6
   Return Air Path Node,Inlet Node,2,AUX_GYM_ZN_1_FLR_1 RETURN AIR NODE NAME,PSZ-AC_2:6
 Return Air Path,3,PSZ-AC_3:7 RETURN AIR PATH,PSZ-AC_3:7
   #Components on Return Air Path,1
   Return Air Path Component,1,AIRLOOPHVAC:ZONEMIXER,PSZ-AC_3:7 RETURN AIR MIXER,PSZ-AC_3:7
     #Inlet Nodes on Return Air Path Component,1
     Return Air Path Component Nodes,1,AIRLOOPHVAC:ZONEMIXER,PSZ-AC_3:7 RETURN AIR MIXER,AUDITORIUM_ZN_1_FLR_1 RETURN AIR NODE NAME,PSZ-AC_3:7 ZONE EQUIPMENT OUTLET NODE,PSZ-AC_3:7
! <#Nodes on Return Air Path>,<Number of Nodes>
! <Return Air Path Node>,<Node Type>,<Node Count>,<Node Name>,<AirLoopHVAC Name>
   #Nodes on Return Air Path,2
   Return Air Path Node,Outlet Node,1,PSZ-AC_3:7 ZONE EQUIPMENT OUTLET NODE,PSZ-AC_3:7
   Return Air Path Node,Inlet Node,2,AUDITORIUM_ZN_1_FLR_1 RETURN AIR NODE NAME,PSZ-AC_3:7
 Return Air Path,4,PSZ-AC_4:8 RETURN AIR PATH,PSZ-AC_4:8
   #Components on Return Air Path,1
   Return Air Path Component,1,AIRLOOPHVAC:ZONEMIXER,PSZ-AC_4:8 RETURN AIR MIXER,PSZ-AC_4:8
     #Inlet Nodes on Return Air Path Component,1
     Return Air Path Component Nodes,1,AIRLOOPHVAC:ZONEMIXER,PSZ-AC_4:8 RETURN AIR MIXER,KITCHEN_ZN_1_FLR_1 RETURN AIR NODE NAME,PSZ-AC_4:8 ZONE EQUIPMENT OUTLET NODE,PSZ-AC_4:8
! <#Nodes on Return Air Path>,<Number of Nodes>
! <Return Air Path Node>,<Node Type>,<Node Count>,<Node Name>,<AirLoopHVAC Name>
   #Nodes on Return Air Path,2
   Return Air Path Node,Outlet Node,1,PSZ-AC_4:8 ZONE EQUIPMENT OUTLET NODE,PSZ-AC_4:8
   Return Air Path Node,Inlet Node,2,KITCHEN_ZN_1_FLR_1 RETURN AIR NODE NAME,PSZ-AC_4:8
 Return Air Path,5,PSZ-AC_5:9 RETURN AIR PATH,PSZ-AC_5:9
   #Components on Return Air Path,1
   Return Air Path Component,1,AIRLOOPHVAC:ZONEMIXER,PSZ-AC_5:9 RETURN AIR MIXER,PSZ-AC_5:9
     #Inlet Nodes on Return Air Path Component,1
     Return Air Path Component Nodes,1,AIRLOOPHVAC:ZONEMIXER,PSZ-AC_5:9 RETURN AIR MIXER,CAFETERIA_ZN_1_FLR_1 RETURN AIR NODE NAME,PSZ-AC_5:9 ZONE EQUIPMENT OUTLET NODE,PSZ-AC_5:9
! <#Nodes on Return Air Path>,<Number of Nodes>
! <Return Air Path Node>,<Node Type>,<Node Count>,<Node Name>,<AirLoopHVAC Name>
   #Nodes on Return Air Path,2
   Return Air Path Node,Outlet Node,1,PSZ-AC_5:9 ZONE EQUIPMENT OUTLET NODE,PSZ-AC_5:9
   Return Air Path Node,Inlet Node,2,CAFETERIA_ZN_1_FLR_1 RETURN AIR NODE NAME,PSZ-AC_5:9
 Return Air Path,6,VAV_OTHER RETURN AIR PATH,VAV_OTHER
   #Components on Return Air Path,1
   Return Air Path Component,1,AIRLOOPHVAC:ZONEMIXER,VAV_OTHER RETURN AIR MIXER,VAV_OTHER
     #Inlet Nodes on Return Air Path Component,11
     Return Air Path Component Nodes,1,AIRLOOPHVAC:ZONEMIXER,VAV_OTHER RETURN AIR MIXER,MAIN_CORRIDOR_ZN_1_FLR_1 RETURN AIR NODE NAME,VAV_OTHER ZONE EQUIPMENT OUTLET NODE,VAV_OTHER
     Return Air Path Component Nodes,2,AIRLOOPHVAC:ZONEMIXER,VAV_OTHER RETURN AIR MIXER,MAIN_CORRIDOR_ZN_1_FLR_2 RETURN AIR NODE NAME,VAV_OTHER ZONE EQUIPMENT OUTLET NODE,VAV_OTHER
     Return Air Path Component Nodes,3,AIRLOOPHVAC:ZONEMIXER,VAV_OTHER RETURN AIR MIXER,LOBBY_ZN_1_FLR_1 RETURN AIR NODE NAME,VAV_OTHER ZONE EQUIPMENT OUTLET NODE,VAV_OTHER
     Return Air Path Component Nodes,4,AIRLOOPHVAC:ZONEMIXER,VAV_OTHER RETURN AIR MIXER,LOBBY_ZN_1_FLR_2 RETURN AIR NODE NAME,VAV_OTHER ZONE EQUIPMENT OUTLET NODE,VAV_OTHER
     Return Air Path Component Nodes,5,AIRLOOPHVAC:ZONEMIXER,VAV_OTHER RETURN AIR MIXER,BATHROOMS_ZN_1_FLR_1 RETURN AIR NODE NAME,VAV_OTHER ZONE EQUIPMENT OUTLET NODE,VAV_OTHER
     Return Air Path Component Nodes,6,AIRLOOPHVAC:ZONEMIXER,VAV_OTHER RETURN AIR MIXER,BATHROOMS_ZN_1_FLR_2 RETURN AIR NODE NAME,VAV_OTHER ZONE EQUIPMENT OUTLET NODE,VAV_OTHER
     Return Air Path Component Nodes,7,AIRLOOPHVAC:ZONEMIXER,VAV_OTHER RETURN AIR MIXER,OFFICES_ZN_1_FLR_1 RETURN AIR NODE NAME,VAV_OTHER ZONE EQUIPMENT OUTLET NODE,VAV_OTHER
     Return Air Path Component Nodes,8,AIRLOOPHVAC:ZONEMIXER,VAV_OTHER RETURN AIR MIXER,OFFICES_ZN_1_FLR_2 RETURN AIR NODE NAME,VAV_OTHER ZONE EQUIPMENT OUTLET NODE,VAV_OTHER
     Return Air Path Component Nodes,9,AIRLOOPHVAC:ZONEMIXER,VAV_OTHER RETURN AIR MIXER,LIBRARY_MEDIA_CENTER_ZN_1_FLR_2 RETURN AIR NODE NAME,VAV_OTHER ZONE EQUIPMENT OUTLET NODE,VAV_OTHER
     Return Air Path Component Nodes,10,AIRLOOPHVAC:ZONEMIXER,VAV_OTHER RETURN AIR MIXER,MECH_ZN_1_FLR_1 RETURN AIR NODE NAME,VAV_OTHER ZONE EQUIPMENT OUTLET NODE,VAV_OTHER
     Return Air Path Component Nodes,11,AIRLOOPHVAC:ZONEMIXER,VAV_OTHER RETURN AIR MIXER,MECH_ZN_1_FLR_2 RETURN AIR NODE NAME,VAV_OTHER ZONE EQUIPMENT OUTLET NODE,VAV_OTHER
! <#Nodes on Return Air Path>,<Number of Nodes>
! <Return Air Path Node>,<Node Type>,<Node Count>,<Node Name>,<AirLoopHVAC Name>
   #Nodes on Return Air Path,12
   Return Air Path Node,Outlet Node,1,VAV_OTHER ZONE EQUIPMENT OUTLET NODE,VAV_OTHER
   Return Air Path Node,Inlet Node,2,MAIN_CORRIDOR_ZN_1_FLR_1 RETURN AIR NODE NAME,VAV_OTHER
   Return Air Path Node,Inlet Node,3,MAIN_CORRIDOR_ZN_1_FLR_2 RETURN AIR NODE NAME,VAV_OTHER
   Return Air Path Node,Inlet Node,4,LOBBY_ZN_1_FLR_1 RETURN AIR NODE NAME,VAV_OTHER
   Return Air Path Node,Inlet Node,5,LOBBY_ZN_1_FLR_2 RETURN AIR NODE NAME,VAV_OTHER
   Return Air Path Node,Inlet Node,6,BATHROOMS_ZN_1_FLR_1 RETURN AIR NODE NAME,VAV_OTHER
   Return Air Path Node,Inlet Node,7,BATHROOMS_ZN_1_FLR_2 RETURN AIR NODE NAME,VAV_OTHER
   Return Air Path Node,Inlet Node,8,OFFICES_ZN_1_FLR_1 RETURN AIR NODE NAME,VAV_OTHER
   Return Air Path Node,Inlet Node,9,OFFICES_ZN_1_FLR_2 RETURN AIR NODE NAME,VAV_OTHER
   Return Air Path Node,Inlet Node,10,LIBRARY_MEDIA_CENTER_ZN_1_FLR_2 RETURN AIR NODE NAME,VAV_OTHER
   Return Air Path Node,Inlet Node,11,MECH_ZN_1_FLR_1 RETURN AIR NODE NAME,VAV_OTHER
   Return Air Path Node,Inlet Node,12,MECH_ZN_1_FLR_2 RETURN AIR NODE NAME,VAV_OTHER
 Return Air Path,7,VAV_POD_1 RETURN AIR PATH,VAV_POD_1
   #Components on Return Air Path,1
   Return Air Path Component,1,AIRLOOPHVAC:ZONEMIXER,VAV_POD_1 RETURN AIR MIXER,VAV_POD_1
     #Inlet Nodes on Return Air Path Component,10
     Return Air Path Component Nodes,1,AIRLOOPHVAC:ZONEMIXER,VAV_POD_1 RETURN AIR MIXER,CORNER_CLASS_1_POD_1_ZN_1_FLR_1 RETURN AIR NODE NAME,VAV_POD_1 ZONE EQUIPMENT OUTLET NODE,VAV_POD_1
     Return Air Path Component Nodes,2,AIRLOOPHVAC:ZONEMIXER,VAV_POD_1 RETURN AIR MIXER,CORNER_CLASS_1_POD_1_ZN_1_FLR_2 RETURN AIR NODE NAME,VAV_POD_1 ZONE EQUIPMENT OUTLET NODE,VAV_POD_1
     Return Air Path Component Nodes,3,AIRLOOPHVAC:ZONEMIXER,VAV_POD_1 RETURN AIR MIXER,MULT_CLASS_1_POD_1_ZN_1_FLR_1 RETURN AIR NODE NAME,VAV_POD_1 ZONE EQUIPMENT OUTLET NODE,VAV_POD_1
     Return Air Path Component Nodes,4,AIRLOOPHVAC:ZONEMIXER,VAV_POD_1 RETURN AIR MIXER,MULT_CLASS_1_POD_1_ZN_1_FLR_2 RETURN AIR NODE NAME,VAV_POD_1 ZONE EQUIPMENT OUTLET NODE,VAV_POD_1
     Return Air Path Component Nodes,5,AIRLOOPHVAC:ZONEMIXER,VAV_POD_1 RETURN AIR MIXER,CORRIDOR_POD_1_ZN_1_FLR_1 RETURN AIR NODE NAME,VAV_POD_1 ZONE EQUIPMENT OUTLET NODE,VAV_POD_1
     Return Air Path Component Nodes,6,AIRLOOPHVAC:ZONEMIXER,VAV_POD_1 RETURN AIR MIXER,CORRIDOR_POD_1_ZN_1_FLR_2 RETURN AIR NODE NAME,VAV_POD_1 ZONE EQUIPMENT OUTLET NODE,VAV_POD_1
     Return Air Path Component Nodes,7,AIRLOOPHVAC:ZONEMIXER,VAV_POD_1 RETURN AIR MIXER,CORNER_CLASS_2_POD_1_ZN_1_FLR_1 RETURN AIR NODE NAME,VAV_POD_1 ZONE EQUIPMENT OUTLET NODE,VAV_POD_1
     Return Air Path Component Nodes,8,AIRLOOPHVAC:ZONEMIXER,VAV_POD_1 RETURN AIR MIXER,CORNER_CLASS_2_POD_1_ZN_1_FLR_2 RETURN AIR NODE NAME,VAV_POD_1 ZONE EQUIPMENT OUTLET NODE,VAV_POD_1
     Return Air Path Component Nodes,9,AIRLOOPHVAC:ZONEMIXER,VAV_POD_1 RETURN AIR MIXER,MULT_CLASS_2_POD_1_ZN_1_FLR_1 RETURN AIR NODE NAME,VAV_POD_1 ZONE EQUIPMENT OUTLET NODE,VAV_POD_1
     Return Air Path Component Nodes,10,AIRLOOPHVAC:ZONEMIXER,VAV_POD_1 RETURN AIR MIXER,MULT_CLASS_2_POD_1_ZN_1_FLR_2 RETURN AIR NODE NAME,VAV_POD_1 ZONE EQUIPMENT OUTLET NODE,VAV_POD_1
! <#Nodes on Return Air Path>,<Number of Nodes>
! <Return Air Path Node>,<Node Type>,<Node Count>,<Node Name>,<AirLoopHVAC Name>
   #Nodes on Return Air Path,11
   Return Air Path Node,Outlet Node,1,VAV_POD_1 ZONE EQUIPMENT OUTLET NODE,VAV_POD_1
   Return Air Path Node,Inlet Node,2,CORNER_CLASS_1_POD_1_ZN_1_FLR_1 RETURN AIR NODE NAME,VAV_POD_1
   Return Air Path Node,Inlet Node,3,CORNER_CLASS_1_POD_1_ZN_1_FLR_2 RETURN AIR NODE NAME,VAV_POD_1
   Return Air Path Node,Inlet Node,4,MULT_CLASS_1_POD_1_ZN_1_FLR_1 RETURN AIR NODE NAME,VAV_POD_1
   Return Air Path Node,Inlet Node,5,MULT_CLASS_1_POD_1_ZN_1_FLR_2 RETURN AIR NODE NAME,VAV_POD_1
   Return Air Path Node,Inlet Node,6,CORRIDOR_POD_1_ZN_1_FLR_1 RETURN AIR NODE NAME,VAV_POD_1
   Return Air Path Node,Inlet Node,7,CORRIDOR_POD_1_ZN_1_FLR_2 RETURN AIR NODE NAME,VAV_POD_1
   Return Air Path Node,Inlet Node,8,CORNER_CLASS_2_POD_1_ZN_1_FLR_1 RETURN AIR NODE NAME,VAV_POD_1
   Return Air Path Node,Inlet Node,9,CORNER_CLASS_2_POD_1_ZN_1_FLR_2 RETURN AIR NODE NAME,VAV_POD_1
   Return Air Path Node,Inlet Node,10,MULT_CLASS_2_POD_1_ZN_1_FLR_1 RETURN AIR NODE NAME,VAV_POD_1
   Return Air Path Node,Inlet Node,11,MULT_CLASS_2_POD_1_ZN_1_FLR_2 RETURN AIR NODE NAME,VAV_POD_1
 Return Air Path,8,VAV_POD_2 RETURN AIR PATH,VAV_POD_2
   #Components on Return Air Path,1
   Return Air Path Component,1,AIRLOOPHVAC:ZONEMIXER,VAV_POD_2 RETURN AIR MIXER,VAV_POD_2
     #Inlet Nodes on Return Air Path Component,10
     Return Air Path Component Nodes,1,AIRLOOPHVAC:ZONEMIXER,VAV_POD_2 RETURN AIR MIXER,CORNER_CLASS_1_POD_2_ZN_1_FLR_1 RETURN AIR NODE NAME,VAV_POD_2 ZONE EQUIPMENT OUTLET NODE,VAV_POD_2
     Return Air Path Component Nodes,2,AIRLOOPHVAC:ZONEMIXER,VAV_POD_2 RETURN AIR MIXER,CORNER_CLASS_1_POD_2_ZN_1_FLR_2 RETURN AIR NODE NAME,VAV_POD_2 ZONE EQUIPMENT OUTLET NODE,VAV_POD_2
     Return Air Path Component Nodes,3,AIRLOOPHVAC:ZONEMIXER,VAV_POD_2 RETURN AIR MIXER,MULT_CLASS_1_POD_2_ZN_1_FLR_1 RETURN AIR NODE NAME,VAV_POD_2 ZONE EQUIPMENT OUTLET NODE,VAV_POD_2
     Return Air Path Component Nodes,4,AIRLOOPHVAC:ZONEMIXER,VAV_POD_2 RETURN AIR MIXER,MULT_CLASS_1_POD_2_ZN_1_FLR_2 RETURN AIR NODE NAME,VAV_POD_2 ZONE EQUIPMENT OUTLET NODE,VAV_POD_2
     Return Air Path Component Nodes,5,AIRLOOPHVAC:ZONEMIXER,VAV_POD_2 RETURN AIR MIXER,CORRIDOR_POD_2_ZN_1_FLR_1 RETURN AIR NODE NAME,VAV_POD_2 ZONE EQUIPMENT OUTLET NODE,VAV_POD_2
     Return Air Path Component Nodes,6,AIRLOOPHVAC:ZONEMIXER,VAV_POD_2 RETURN AIR MIXER,CORRIDOR_POD_2_ZN_1_FLR_2 RETURN AIR NODE NAME,VAV_POD_2 ZONE EQUIPMENT OUTLET NODE,VAV_POD_2
[...]
 Non-Parent Node Connection,CORNER_CLASS_2_POD_2_ZN_1_FLR_1 RETURN AIR NODE NAME,AIRLOOPHVAC:ZONEMIXER,VAV_POD_2 RETURN AIR MIXER,Inlet,1
 Non-Parent Node Connection,CORNER_CLASS_2_POD_2_ZN_1_FLR_2 RETURN AIR NODE NAME,AIRLOOPHVAC:ZONEMIXER,VAV_POD_2 RETURN AIR MIXER,Inlet,1
 Non-Parent Node Connection,MULT_CLASS_2_POD_2_ZN_1_FLR_1 RETURN AIR NODE NAME,AIRLOOPHVAC:ZONEMIXER,VAV_POD_2 RETURN AIR MIXER,Inlet,1
 Non-Parent Node Connection,MULT_CLASS_2_POD_2_ZN_1_FLR_2 RETURN AIR NODE NAME,AIRLOOPHVAC:ZONEMIXER,VAV_POD_2 RETURN AIR MIXER,Inlet,1
 Non-Parent Node Connection,VAV_POD_3 ZONE EQUIPMENT OUTLET NODE,AIRLOOPHVAC:ZONEMIXER,VAV_POD_3 RETURN AIR MIXER,Outlet,1
 Non-Parent Node Connection,CORNER_CLASS_1_POD_3_ZN_1_FLR_1 RETURN AIR NODE NAME,AIRLOOPHVAC:ZONEMIXER,VAV_POD_3 RETURN AIR MIXER,Inlet,1
 Non-Parent Node Connection,CORNER_CLASS_1_POD_3_ZN_1_FLR_2 RETURN AIR NODE NAME,AIRLOOPHVAC:ZONEMIXER,VAV_POD_3 RETURN AIR MIXER,Inlet,1
 Non-Parent Node Connection,MULT_CLASS_1_POD_3_ZN_1_FLR_1 RETURN AIR NODE NAME,AIRLOOPHVAC:ZONEMIXER,VAV_POD_3 RETURN AIR MIXER,Inlet,1
 Non-Parent Node Connection,MULT_CLASS_1_POD_3_ZN_1_FLR_2 RETURN AIR NODE NAME,AIRLOOPHVAC:ZONEMIXER,VAV_POD_3 RETURN AIR MIXER,Inlet,1
 Non-Parent Node Connection,CORRIDOR_POD_3_ZN_1_FLR_1 RETURN AIR NODE NAME,AIRLOOPHVAC:ZONEMIXER,VAV_POD_3 RETURN AIR MIXER,Inlet,1
 Non-Parent Node Connection,CORRIDOR_POD_3_ZN_1_FLR_2 RETURN AIR NODE NAME,AIRLOOPHVAC:ZONEMIXER,VAV_POD_3 RETURN AIR MIXER,Inlet,1
 Non-Parent Node Connection,CORNER_CLASS_2_POD_3_ZN_1_FLR_1 RETURN AIR NODE NAME,AIRLOOPHVAC:ZONEMIXER,VAV_POD_3 RETURN AIR MIXER,Inlet,1
 Non-Parent Node Connection,CORNER_CLASS_2_POD_3_ZN_1_FLR_2 RETURN AIR NODE NAME,AIRLOOPHVAC:ZONEMIXER,VAV_POD_3 RETURN AIR MIXER,Inlet,1
 Non-Parent Node Connection,MULT_CLASS_2_POD_3_ZN_1_FLR_1 RETURN AIR NODE NAME,AIRLOOPHVAC:ZONEMIXER,VAV_POD_3 RETURN AIR MIXER,Inlet,1
 Non-Parent Node Connection,MULT_CLASS_2_POD_3_ZN_1_FLR_2 RETURN AIR NODE NAME,AIRLOOPHVAC:ZONEMIXER,VAV_POD_3 RETURN AIR MIXER,Inlet,1
 Non-Parent Node Connection,PSZ-AC_1:5_OA-PSZ-AC_1:5_COOLCNODE,OUTDOORAIR:MIXER,PSZ-AC_1:5_OAMIXING BOX,Outlet,1
 Non-Parent Node Connection,PSZ-AC_1:5_OAINLET NODE,OUTDOORAIR:MIXER,PSZ-AC_1:5_OAMIXING BOX,Inlet,1
 Non-Parent Node Connection,PSZ-AC_1:5_OARELIEF NODE,OUTDOORAIR:MIXER,PSZ-AC_1:5_OAMIXING BOX,ReliefAir,1
 Non-Parent Node Connection,PSZ-AC_1:5 SUPPLY EQUIPMENT INLET NODE,OUTDOORAIR:MIXER,PSZ-AC_1:5_OAMIXING BOX,Inlet,1
 Non-Parent Node Connection,PSZ-AC_2:6_OA-PSZ-AC_2:6_COOLCNODE,OUTDOORAIR:MIXER,PSZ-AC_2:6_OAMIXING BOX,Outlet,1
 Non-Parent Node Connection,PSZ-AC_2:6_OAINLET NODE,OUTDOORAIR:MIXER,PSZ-AC_2:6_OAMIXING BOX,Inlet,1
 Non-Parent Node Connection,PSZ-AC_2:6_OARELIEF NODE,OUTDOORAIR:MIXER,PSZ-AC_2:6_OAMIXING BOX,ReliefAir,1
 Non-Parent Node Connection,PSZ-AC_2:6 SUPPLY EQUIPMENT INLET NODE,OUTDOORAIR:MIXER,PSZ-AC_2:6_OAMIXING BOX,Inlet,1
 Non-Parent Node Connection,PSZ-AC_3:7_OA-PSZ-AC_3:7_COOLCNODE,OUTDOORAIR:MIXER,PSZ-AC_3:7_OAMIXING BOX,Outlet,1
 Non-Parent Node Connection,PSZ-AC_3:7_OAINLET NODE,OUTDOORAIR:MIXER,PSZ-AC_3:7_OAMIXING BOX,Inlet,1
 Non-Parent Node Connection,PSZ-AC_3:7_OARELIEF NODE,OUTDOORAIR:MIXER,PSZ-AC_3:7_OAMIXING BOX,ReliefAir,1
 Non-Parent Node Connection,PSZ-AC_3:7 SUPPLY EQUIPMENT INLET NODE,OUTDOORAIR:MIXER,PSZ-AC_3:7_OAMIXING BOX,Inlet,1
 Non-Parent Node Connection,PSZ-AC_4:8_OA-PSZ-AC_4:8_COOLCNODE,OUTDOORAIR:MIXER,PSZ-AC_4:8_OAMIXING BOX,Outlet,1
 Non-Parent Node Connection,PSZ-AC_4:8_OAINLET NODE,OUTDOORAIR:MIXER,PSZ-AC_4:8_OAMIXING BOX,Inlet,1
 Non-Parent Node Connection,PSZ-AC_4:8_OARELIEF NODE,OUTDOORAIR:MIXER,PSZ-AC_4:8_OAMIXING BOX,ReliefAir,1
 Non-Parent Node Connection,PSZ-AC_4:8 SUPPLY EQUIPMENT INLET NODE,OUTDOORAIR:MIXER,PSZ-AC_4:8_OAMIXING BOX,Inlet,1
 Non-Parent Node Connection,PSZ-AC_5:9_OA-PSZ-AC_5:9_COOLCNODE,OUTDOORAIR:MIXER,PSZ-AC_5:9_OAMIXING BOX,Outlet,1
 Non-Parent Node Connection,PSZ-AC_5:9_OAINLET NODE,OUTDOORAIR:MIXER,PSZ-AC_5:9_OAMIXING BOX,Inlet,1
 Non-Parent Node Connection,PSZ-AC_5:9_OARELIEF NODE,OUTDOORAIR:MIXER,PSZ-AC_5:9_OAMIXING BOX,ReliefAir,1
 Non-Parent Node Connection,PSZ-AC_5:9 SUPPLY EQUIPMENT INLET NODE,OUTDOORAIR:MIXER,PSZ-AC_5:9_OAMIXING BOX,Inlet,1
 Non-Parent Node Connection,VAV_OTHER_OA-VAV_OTHER_COOLCNODE,OUTDOORAIR:MIXER,VAV_OTHER_OAMIXING BOX,Outlet,1
 Non-Parent Node Connection,VAV_OTHER_OAINLET NODE,OUTDOORAIR:MIXER,VAV_OTHER_OAMIXING BOX,Inlet,1
 Non-Parent Node Connection,VAV_OTHER_OARELIEF NODE,OUTDOORAIR:MIXER,VAV_OTHER_OAMIXING BOX,ReliefAir,1
 Non-Parent Node Connection,VAV_OTHER SUPPLY EQUIPMENT INLET NODE,OUTDOORAIR:MIXER,VAV_OTHER_OAMIXING BOX,Inlet,1
 Non-Parent Node Connection,VAV_POD_1_OA-VAV_POD_1_COOLCNODE,OUTDOORAIR:MIXER,VAV_POD_1_OAMIXING BOX,Outlet,1
 Non-Parent Node Connection,VAV_POD_1_OAINLET NODE,OUTDOORAIR:MIXER,VAV_POD_1_OAMIXING BOX,Inlet,1
 Non-Parent Node Connection,VAV_POD_1_OARELIEF NODE,OUTDOORAIR:MIXER,VAV_POD_1_OAMIXING BOX,ReliefAir,1
 Non-Parent Node Connection,VAV_POD_1 SUPPLY EQUIPMENT INLET NODE,OUTDOORAIR:MIXER,VAV_POD_1_OAMIXING BOX,Inlet,1
 Non-Parent Node Connection,VAV_POD_2_OA-VAV_POD_2_COOLCNODE,OUTDOORAIR:MIXER,VAV_POD_2_OAMIXING BOX,Outlet,1
 Non-Parent Node Connection,VAV_POD_2_OAINLET NODE,OUTDOORAIR:MIXER,VAV_POD_2_OAMIXING BOX,Inlet,1
 Non-Parent Node Connection,VAV_POD_2_OARELIEF NODE,OUTDOORAIR:MIXER,VAV_POD_2_OAMIXING BOX,ReliefAir,1
 Non-Parent Node Connection,VAV_POD_2 SUPPLY EQUIPMENT INLET NODE,OUTDOORAIR:MIXER,VAV_POD_2_OAMIXING BOX,Inlet,1
 Non-Parent Node Connection,VAV_POD_3_OA-VAV_POD_3_COOLCNODE,OUTDOORAIR:MIXER,VAV_POD_3_OAMIXING BOX,Outlet,1
 Non-Parent Node Connection,VAV_POD_3_OAINLET NODE,OUTDOORAIR:MIXER,VAV_POD_3_OAMIXING BOX,Inlet,1
 Non-Parent Node Connection,VAV_POD_3_OARELIEF NODE,OUTDOORAIR:MIXER,VAV_POD_3_OAMIXING BOX,ReliefAir,1
 Non-Parent Node Connection,VAV_POD_3 SUPPLY EQUIPMENT INLET NODE,OUTDOORAIR:MIXER,VAV_POD_3_OAMIXING BOX,Inlet,1
 Non-Parent Node Connection,VAV_OTHER_COOLC-VAV_OTHER_HEATCNODE,CONTROLLER:WATERCOIL,VAV_OTHER_COOLC_CONTROLLER,Sensor,1
 Non-Parent Node Connection,VAV_OTHER_COOLCDEMAND INLET NODE,CONTROLLER:WATERCOIL,VAV_OTHER_COOLC_CONTROLLER,Actuator,1
 Non-Parent Node Connection,VAV_OTHER_HEATC-VAV_OTHER_FANNODE,CONTROLLER:WATERCOIL,VAV_OTHER_HEATC_CONTROLLER,Sensor,1
 Non-Parent Node Connection,VAV_OTHER_HEATCDEMAND INLET NODE,CONTROLLER:WATERCOIL,VAV_OTHER_HEATC_CONTROLLER,Actuator,1
 Non-Parent Node Connection,VAV_POD_1_COOLC-VAV_POD_1_HEATCNODE,CONTROLLER:WATERCOIL,VAV_POD_1_COOLC_CONTROLLER,Sensor,1
 Non-Parent Node Connection,VAV_POD_1_COOLCDEMAND INLET NODE,CONTROLLER:WATERCOIL,VAV_POD_1_COOLC_CONTROLLER,Actuator,1
 Non-Parent Node Connection,VAV_POD_1_HEATC-VAV_POD_1_FANNODE,CONTROLLER:WATERCOIL,VAV_POD_1_HEATC_CONTROLLER,Sensor,1
 Non-Parent Node Connection,VAV_POD_1_HEATCDEMAND INLET NODE,CONTROLLER:WATERCOIL,VAV_POD_1_HEATC_CONTROLLER,Actuator,1
 Non-Parent Node Connection,VAV_POD_2_COOLC-VAV_POD_2_HEATCNODE,CONTROLLER:WATERCOIL,VAV_POD_2_COOLC_CONTROLLER,Sensor,1
 Non-Parent Node Connection,VAV_POD_2_COOLCDEMAND INLET NODE,CONTROLLER:WATERCOIL,VAV_POD_2_COOLC_CONTROLLER,Actuator,1
 Non-Parent Node Connection,VAV_POD_2_HEATC-VAV_POD_2_FANNODE,CONTROLLER:WATERCOIL,VAV_POD_2_HEATC_CONTROLLER,Sensor,1
 Non-Parent Node Connection,VAV_POD_2_HEATCDEMAND INLET NODE,CONTROLLER:WATERCOIL,VAV_POD_2_HEATC_CONTROLLER,Actuator,1
 Non-Parent Node Connection,VAV_POD_3_COOLC-VAV_POD_3_HEATCNODE,CONTROLLER:WATERCOIL,VAV_POD_3_COOLC_CONTROLLER,Sensor,1
 Non-Parent Node Connection,VAV_POD_3_COOLCDEMAND INLET NODE,CONTROLLER:WATERCOIL,VAV_POD_3_COOLC_CONTROLLER,Actuator,1
 Non-Parent Node Connection,VAV_POD_3_HEATC-VAV_POD_3_FANNODE,CONTROLLER:WATERCOIL,VAV_POD_3_HEATC_CONTROLLER,Sensor,1
 Non-Parent Node Connection,VAV_POD_3_HEATCDEMAND INLET NODE,CONTROLLER:WATERCOIL,VAV_POD_3_HEATC_CONTROLLER,Actuator,1
 Non-Parent Node Connection,PSZ-AC_1:5_OA-PSZ-AC_1:5_COOLCNODE,CONTROLLER:OUTDOORAIR,PSZ-AC_1:5_OA_CONTROLLER,Sensor,1
 Non-Parent Node Connection,PSZ-AC_1:5_OAINLET NODE,CONTROLLER:OUTDOORAIR,PSZ-AC_1:5_OA_CONTROLLER,Actuator,1
 Non-Parent Node Connection,PSZ-AC_1:5_OARELIEF NODE,CONTROLLER:OUTDOORAIR,PSZ-AC_1:5_OA_CONTROLLER,Actuator,1
 Non-Parent Node Connection,PSZ-AC_1:5 SUPPLY EQUIPMENT INLET NODE,CONTROLLER:OUTDOORAIR,PSZ-AC_1:5_OA_CONTROLLER,Sensor,1
 Non-Parent Node Connection,PSZ-AC_2:6_OA-PSZ-AC_2:6_COOLCNODE,CONTROLLER:OUTDOORAIR,PSZ-AC_2:6_OA_CONTROLLER,Sensor,1
 Non-Parent Node Connection,PSZ-AC_2:6_OAINLET NODE,CONTROLLER:OUTDOORAIR,PSZ-AC_2:6_OA_CONTROLLER,Actuator,1
 Non-Parent Node Connection,PSZ-AC_2:6_OARELIEF NODE,CONTROLLER:OUTDOORAIR,PSZ-AC_2:6_OA_CONTROLLER,Actuator,1
 Non-Parent Node Connection,PSZ-AC_2:6 SUPPLY EQUIPMENT INLET NODE,CONTROLLER:OUTDOORAIR,PSZ-AC_2:6_OA_CONTROLLER,Sensor,1
 Non-Parent Node Connection,PSZ-AC_3:7_OA-PSZ-AC_3:7_COOLCNODE,CONTROLLER:OUTDOORAIR,PSZ-AC_3:7_OA_CONTROLLER,Sensor,1
 Non-Parent Node Connection,PSZ-AC_3:7_OAINLET NODE,CONTROLLER:OUTDOORAIR,PSZ-AC_3:7_OA_CONTROLLER,Actuator,1
 Non-Parent Node Connection,PSZ-AC_3:7_OARELIEF NODE,CONTROLLER:OUTDOORAIR,PSZ-AC_3:7_OA_CONTROLLER,Actuator,1
 Non-Parent Node Connection,PSZ-AC_3:7 SUPPLY EQUIPMENT INLET NODE,CONTROLLER:OUTDOORAIR,PSZ-AC_3:7_OA_CONTROLLER,Sensor,1
 Non-Parent Node Connection,PSZ-AC_4:8_OA-PSZ-AC_4:8_COOLCNODE,CONTROLLER:OUTDOORAIR,PSZ-AC_4:8_OA_CONTROLLER,Sensor,1
 Non-Parent Node Connection,PSZ-AC_4:8_OAINLET NODE,CONTROLLER:OUTDOORAIR,PSZ-AC_4:8_OA_CONTROLLER,Actuator,1
 Non-Parent Node Connection,PSZ-AC_4:8_OARELIEF NODE,CONTROLLER:OUTDOORAIR,PSZ-AC_4:8_OA_CONTROLLER,Actuator,1
 Non-Parent Node Connection,PSZ-AC_4:8 SUPPLY EQUIPMENT INLET NODE,CONTROLLER:OUTDOORAIR,PSZ-AC_4:8_OA_CONTROLLER,Sensor,1
 Non-Parent Node Connection,PSZ-AC_5:9_OA-PSZ-AC_5:9_COOLCNODE,CONTROLLER:OUTDOORAIR,PSZ-AC_5:9_OA_CONTROLLER,Sensor,1
 Non-Parent Node Connection,PSZ-AC_5:9_OAINLET NODE,CONTROLLER:OUTDOORAIR,PSZ-AC_5:9_OA_CONTROLLER,Actuator,1
 Non-Parent Node Connection,PSZ-AC_5:9_OARELIEF NODE,CONTROLLER:OUTDOORAIR,PSZ-AC_5:9_OA_CONTROLLER,Actuator,1
 Non-Parent Node Connection,PSZ-AC_5:9 SUPPLY EQUIPMENT INLET NODE,CONTROLLER:OUTDOORAIR,PSZ-AC_5:9_OA_CONTROLLER,Sensor,1
 Non-Parent Node Connection,VAV_OTHER_OA-VAV_OTHER_COOLCNODE,CONTROLLER:OUTDOORAIR,VAV_OTHER_OA_CONTROLLER,Sensor,1
 Non-Parent Node Connection,VAV_OTHER_OAINLET NODE,CONTROLLER:OUTDOORAIR,VAV_OTHER_OA_CONTROLLER,Actuator,1
 Non-Parent Node Connection,VAV_OTHER_OARELIEF NODE,CONTROLLER:OUTDOORAIR,VAV_OTHER_OA_CONTROLLER,Actuator,1
 Non-Parent Node Connection,VAV_OTHER SUPPLY EQUIPMENT INLET NODE,CONTROLLER:OUTDOORAIR,VAV_OTHER_OA_CONTROLLER,Sensor,1
 Non-Parent Node Connection,VAV_POD_1_OA-VAV_POD_1_COOLCNODE,CONTROLLER:OUTDOORAIR,VAV_POD_1_OA_CONTROLLER,Sensor,1
 Non-Parent Node Connection,VAV_POD_1_OAINLET NODE,CONTROLLER:OUTDOORAIR,VAV_POD_1_OA_CONTROLLER,Actuator,1
 Non-Parent Node Connection,VAV_POD_1_OARELIEF NODE,CONTROLLER:OUTDOORAIR,VAV_POD_1_OA_CONTROLLER,Actuator,1
 Non-Parent Node Connection,VAV_POD_1 SUPPLY EQUIPMENT INLET NODE,CONTROLLER:OUTDOORAIR,VAV_POD_1_OA_CONTROLLER,Sensor,1
 Non-Parent Node Connection,VAV_POD_2_OA-VAV_POD_2_COOLCNODE,CONTROLLER:OUTDOORAIR,VAV_POD_2_OA_CONTROLLER,Sensor,1
 Non-Parent Node Connection,VAV_POD_2_OAINLET NODE,CONTROLLER:OUTDOORAIR,VAV_POD_2_OA_CONTROLLER,Actuator,1
 Non-Parent Node Connection,VAV_POD_2_OARELIEF NODE,CONTROLLER:OUTDOORAIR,VAV_POD_2_OA_CONTROLLER,Actuator,1
 Non-Parent Node Connection,VAV_POD_2 SUPPLY EQUIPMENT INLET NODE,CONTROLLER:OUTDOORAIR,VAV_POD_2_OA_CONTROLLER,Sensor,1
 Non-Parent Node Connection,VAV_POD_3_OA-VAV_POD_3_COOLCNODE,CONTROLLER:OUTDOORAIR,VAV_POD_3_OA_CONTROLLER,Sensor,1
 Non-Parent Node Connection,VAV_POD_3_OAINLET NODE,CONTROLLER:OUTDOORAIR,VAV_POD_3_OA_CONTROLLER,Actuator,1
 Non-Parent Node Connection,VAV_POD_3_OARELIEF NODE,CONTROLLER:OUTDOORAIR,VAV_POD_3_OA_CONTROLLER,Actuator,1
 Non-Parent Node Connection,VAV_POD_3 SUPPLY EQUIPMENT INLET NODE,CONTROLLER:OUTDOORAIR,VAV_POD_3_OA_CONTROLLER,Sensor,1
 Non-Parent Node Connection,PSZ-AC_1:5_OA-PSZ-AC_1:5_COOLCNODE,COIL:COOLING:DX:SINGLESPEED,PSZ-AC_1:5_COOLC DXCOIL,Inlet,1
 Non-Parent Node Connection,PSZ-AC_1:5_COOLC-PSZ-AC_1:5_HEATCNODE,COIL:COOLING:DX:SINGLESPEED,PSZ-AC_1:5_COOLC DXCOIL,Outlet,1
 Non-Parent Node Connection,PSZ-AC_2:6_OA-PSZ-AC_2:6_COOLCNODE,COIL:COOLING:DX:SINGLESPEED,PSZ-AC_2:6_COOLC DXCOIL,Inlet,1
 Non-Parent Node Connection,PSZ-AC_2:6_COOLC-PSZ-AC_2:6_HEATCNODE,COIL:COOLING:DX:SINGLESPEED,PSZ-AC_2:6_COOLC DXCOIL,Outlet,1
 Non-Parent Node Connection,PSZ-AC_3:7_OA-PSZ-AC_3:7_COOLCNODE,COIL:COOLING:DX:SINGLESPEED,PSZ-AC_3:7_COOLC DXCOIL,Inlet,1
 Non-Parent Node Connection,PSZ-AC_3:7_COOLC-PSZ-AC_3:7_HEATCNODE,COIL:COOLING:DX:SINGLESPEED,PSZ-AC_3:7_COOLC DXCOIL,Outlet,1
 Non-Parent Node Connection,PSZ-AC_4:8_OA-PSZ-AC_4:8_COOLCNODE,COIL:COOLING:DX:SINGLESPEED,PSZ-AC_4:8_COOLC DXCOIL,Inlet,1
 Non-Parent Node Connection,PSZ-AC_4:8_COOLC-PSZ-AC_4:8_HEATCNODE,COIL:COOLING:DX:SINGLESPEED,PSZ-AC_4:8_COOLC DXCOIL,Outlet,1
 Non-Parent Node Connection,PSZ-AC_5:9_OA-PSZ-AC_5:9_COOLCNODE,COIL:COOLING:DX:SINGLESPEED,PSZ-AC_5:9_COOLC DXCOIL,Inlet,1
 Non-Parent Node Connection,PSZ-AC_5:9_COOLC-PSZ-AC_5:9_HEATCNODE,COIL:COOLING:DX:SINGLESPEED,PSZ-AC_5:9_COOLC DXCOIL,Outlet,1
 Non-Parent Node Connection,PSZ-AC_1:5_COOLC-PSZ-AC_1:5_HEATCNODE,COIL:HEATING:GAS,PSZ-AC_1:5_HEATC,Inlet,1
 Non-Parent Node Connection,PSZ-AC_1:5_HEATC-PSZ-AC_1:5_FANNODE,COIL:HEATING:GAS,PSZ-AC_1:5_HEATC,Outlet,1
 Non-Parent Node Connection,PSZ-AC_1:5_HEATC-PSZ-AC_1:5_FANNODE,COIL:HEATING:GAS,PSZ-AC_1:5_HEATC,Sensor,1
 Non-Parent Node Connection,PSZ-AC_2:6_COOLC-PSZ-AC_2:6_HEATCNODE,COIL:HEATING:GAS,PSZ-AC_2:6_HEATC,Inlet,1
 Non-Parent Node Connection,PSZ-AC_2:6_HEATC-PSZ-AC_2:6_FANNODE,COIL:HEATING:GAS,PSZ-AC_2:6_HEATC,Outlet,1
 Non-Parent Node Connection,PSZ-AC_2:6_HEATC-PSZ-AC_2:6_FANNODE,COIL:HEATING:GAS,PSZ-AC_2:6_HEATC,Sensor,1
 Non-Parent Node Connection,PSZ-AC_3:7_COOLC-PSZ-AC_3:7_HEATCNODE,COIL:HEATING:GAS,PSZ-AC_3:7_HEATC,Inlet,1
 Non-Parent Node Connection,PSZ-AC_3:7_HEATC-PSZ-AC_3:7_FANNODE,COIL:HEATING:GAS,PSZ-AC_3:7_HEATC,Outlet,1
 Non-Parent Node Connection,PSZ-AC_3:7_HEATC-PSZ-AC_3:7_FANNODE,COIL:HEATING:GAS,PSZ-AC_3:7_HEATC,Sensor,1
 Non-Parent Node Connection,PSZ-AC_4:8_COOLC-PSZ-AC_4:8_HEATCNODE,COIL:HEATING:GAS,PSZ-AC_4:8_HEATC,Inlet,1
 Non-Parent Node Connection,PSZ-AC_4:8_HEATC-PSZ-AC_4:8_FANNODE,COIL:HEATING:GAS,PSZ-AC_4:8_HEATC,Outlet,1
 Non-Parent Node Connection,PSZ-AC_4:8_HEATC-PSZ-AC_4:8_FANNODE,COIL:HEATING:GAS,PSZ-AC_4:8_HEATC,Sensor,1
 Non-Parent Node Connection,PSZ-AC_5:9_COOLC-PSZ-AC_5:9_HEATCNODE,COIL:HEATING:GAS,PSZ-AC_5:9_HEATC,Inlet,1
 Non-Parent Node Connection,PSZ-AC_5:9_HEATC-PSZ-AC_5:9_FANNODE,COIL:HEATING:GAS,PSZ-AC_5:9_HEATC,Outlet,1
 Non-Parent Node Connection,PSZ-AC_5:9_HEATC-PSZ-AC_5:9_FANNODE,COIL:HEATING:GAS,PSZ-AC_5:9_HEATC,Sensor,1
 Non-Parent Node Connection,COOLSYS1 DEMAND BYPASS PIPE INLET NODE,PIPE:ADIABATIC,COOLSYS1 DEMAND BYPASS PIPE,Inlet,1
 Non-Parent Node Connection,COOLSYS1 DEMAND BYPASS PIPE OUTLET NODE,PIPE:ADIABATIC,COOLSYS1 DEMAND BYPASS PIPE,Outlet,1
 Non-Parent Node Connection,COOLSYS1 DEMAND INLET NODE,PIPE:ADIABATIC,COOLSYS1 DEMAND INLET PIPE,Inlet,1
 Non-Parent Node Connection,COOLSYS1 DEMAND INLET PIPE-COOLSYS1 DEMAND MIXER,PIPE:ADIABATIC,COOLSYS1 DEMAND INLET PIPE,Outlet,1
 Non-Parent Node Connection,COOLSYS1 DEMAND MIXER-COOLSYS1 DEMAND OUTLET PIPE,PIPE:ADIABATIC,COOLSYS1 DEMAND OUTLET PIPE,Inlet,1
 Non-Parent Node Connection,COOLSYS1 DEMAND OUTLET NODE,PIPE:ADIABATIC,COOLSYS1 DEMAND OUTLET PIPE,Outlet,1
 Non-Parent Node Connection,COOLSYS1 SUPPLY EQUIP BYPASS INLET NODE,PIPE:ADIABATIC,COOLSYS1 SUPPLY EQUIPMENT BYPASS PIPE,Inlet,1
 Non-Parent Node Connection,COOLSYS1 SUPPLY EQUIP BYPASS OUTLET NODE,PIPE:ADIABATIC,COOLSYS1 SUPPLY EQUIPMENT BYPASS PIPE,Outlet,1
 Non-Parent Node Connection,COOLSYS1 SUPPLY MIXER-COOLSYS1 SUPPLY OUTLET PIPE,PIPE:ADIABATIC,COOLSYS1 SUPPLY OUTLET PIPE,Inlet,1
 Non-Parent Node Connection,COOLSYS1 SUPPLY OUTLET NODE,PIPE:ADIABATIC,COOLSYS1 SUPPLY OUTLET PIPE,Outlet,1
 Non-Parent Node Connection,HEATSYS1 DEMAND BYPASS PIPE INLET NODE,PIPE:ADIABATIC,HEATSYS1 DEMAND BYPASS PIPE,Inlet,1
 Non-Parent Node Connection,HEATSYS1 DEMAND BYPASS PIPE OUTLET NODE,PIPE:ADIABATIC,HEATSYS1 DEMAND BYPASS PIPE,Outlet,1
 Non-Parent Node Connection,HEATSYS1 DEMAND INLET NODE,PIPE:ADIABATIC,HEATSYS1 DEMAND INLET PIPE,Inlet,1
 Non-Parent Node Connection,HEATSYS1 DEMAND INLET PIPE-HEATSYS1 DEMAND MIXER,PIPE:ADIABATIC,HEATSYS1 DEMAND INLET PIPE,Outlet,1
 Non-Parent Node Connection,HEATSYS1 DEMAND MIXER-HEATSYS1 DEMAND OUTLET PIPE,PIPE:ADIABATIC,HEATSYS1 DEMAND OUTLET PIPE,Inlet,1
 Non-Parent Node Connection,HEATSYS1 DEMAND OUTLET NODE,PIPE:ADIABATIC,HEATSYS1 DEMAND OUTLET PIPE,Outlet,1
 Non-Parent Node Connection,HEATSYS1 SUPPLY EQUIP BYPASS INLET NODE,PIPE:ADIABATIC,HEATSYS1 SUPPLY EQUIPMENT BYPASS PIPE,Inlet,1
 Non-Parent Node Connection,HEATSYS1 SUPPLY EQUIP BYPASS OUTLET NODE,PIPE:ADIABATIC,HEATSYS1 SUPPLY EQUIPMENT BYPASS PIPE,Outlet,1
 Non-Parent Node Connection,HEATSYS1 SUPPLY MIXER-HEATSYS1 SUPPLY OUTLET PIPE,PIPE:ADIABATIC,HEATSYS1 SUPPLY OUTLET PIPE,Inlet,1
 Non-Parent Node Connection,HEATSYS1 SUPPLY OUTLET NODE,PIPE:ADIABATIC,HEATSYS1 SUPPLY OUTLET PIPE,Outlet,1
 Non-Parent Node Connection,SWHSYS1 DEMAND BYPASS PIPE INLET NODE,PIPE:ADIABATIC,SWHSYS1 DEMAND BYPASS PIPE,Inlet,1
 Non-Parent Node Connection,SWHSYS1 DEMAND BYPASS PIPE OUTLET NODE,PIPE:ADIABATIC,SWHSYS1 DEMAND BYPASS PIPE,Outlet,1
 Non-Parent Node Connection,SWHSYS1 DEMAND INLET NODE,PIPE:ADIABATIC,SWHSYS1 DEMAND INLET PIPE,Inlet,1
 Non-Parent Node Connection,SWHSYS1 DEMAND INLET PIPE-SWHSYS1 DEMAND MIXER,PIPE:ADIABATIC,SWHSYS1 DEMAND INLET PIPE,Outlet,1
 Non-Parent Node Connection,SWHSYS1 DEMAND MIXER-SWHSYS1 DEMAND OUTLET PIPE,PIPE:ADIABATIC,SWHSYS1 DEMAND OUTLET PIPE,Inlet,1
 Non-Parent Node Connection,SWHSYS1 DEMAND OUTLET NODE,PIPE:ADIABATIC,SWHSYS1 DEMAND OUTLET PIPE,Outlet,1
 Non-Parent Node Connection,SWHSYS1 SUPPLY EQUIP BYPASS INLET NODE,PIPE:ADIABATIC,SWHSYS1 SUPPLY EQUIPMENT BYPASS PIPE,Inlet,1
 Non-Parent Node Connection,SWHSYS1 SUPPLY EQUIP BYPASS OUTLET NODE,PIPE:ADIABATIC,SWHSYS1 SUPPLY EQUIPMENT BYPASS PIPE,Outlet,1
 Non-Parent Node Connection,SWHSYS1 SUPPLY MIXER-SWHSYS1 SUPPLY OUTLET PIPE,PIPE:ADIABATIC,SWHSYS1 SUPPLY OUTLET PIPE,Inlet,1
 Non-Parent Node Connection,SWHSYS1 SUPPLY OUTLET NODE,PIPE:ADIABATIC,SWHSYS1 SUPPLY OUTLET PIPE,Outlet,1
 Non-Parent Node Connection,COOLSYS1 PUMP-COOLSYS1 CHILLERNODE,CHILLER:ELECTRIC:EIR,COOLSYS1 CHILLER,Inlet,1
 Non-Parent Node Connection,COOLSYS1 SUPPLY EQUIPMENT OUTLET NODE,CHILLER:ELECTRIC:EIR,COOLSYS1 CHILLER,Outlet,1
 Non-Parent Node Connection,COOLSYS1 CHILLERCONDENSER OA INLET,CHILLER:ELECTRIC:EIR,COOLSYS1 CHILLER,OutsideAirReference,2
 Non-Parent Node Connection,COOLSYS1 CHILLERCONDENSER OUTLET,CHILLER:ELECTRIC:EIR,COOLSYS1 CHILLER,Outlet,2
 Non-Parent Node Connection,HEATSYS1 PUMP-HEATSYS1 BOILERNODE,BOILER:HOTWATER,HEATSYS1 BOILER,Inlet,1
 Non-Parent Node Connection,HEATSYS1 SUPPLY EQUIPMENT OUTLET NODE,BOILER:HOTWATER,HEATSYS1 BOILER,Outlet,1
 Non-Parent Node Connection,COOLSYS1 SUPPLY INLET NODE,PUMP:VARIABLESPEED,COOLSYS1 PUMP,Inlet,1
 Non-Parent Node Connection,COOLSYS1 PUMP-COOLSYS1 CHILLERNODEVIACONNECTOR,PUMP:VARIABLESPEED,COOLSYS1 PUMP,Outlet,1
 Non-Parent Node Connection,HEATSYS1 SUPPLY INLET NODE,PUMP:VARIABLESPEED,HEATSYS1 PUMP,Inlet,1
 Non-Parent Node Connection,HEATSYS1 PUMP-HEATSYS1 BOILERNODEVIACONNECTOR,PUMP:VARIABLESPEED,HEATSYS1 PUMP,Outlet,1
 Non-Parent Node Connection,SWHSYS1 SUPPLY INLET NODE,PUMP:VARIABLESPEED,SWHSYS1 PUMP,Inlet,1
 Non-Parent Node Connection,SWHSYS1 PUMP-SWHSYS1 WATER HEATERNODEVIACONNECTOR,PUMP:VARIABLESPEED,SWHSYS1 PUMP,Outlet,1
